<additional xmlns:xsi="http://www.w3.org/2001/XMLSchema-instance" xsi:noNamespaceSchemaLocation="http://sumo.dlr.de/xsd/additional_file.xsd">
    <!--<e1Detector file="sumo_output_e1_dets.xml" freq="1" friendlyPos="x" id="e1det_A_B_0" lane="A_B_0" pos="499.9"/>-->
    <!--<e1Detector file="sumo_output_e1_dets.xml" freq="1" friendlyPos="x" id="e1det_A_B_0" lane="A_B_0" pos="800"/>-->
    <e1Detector file="sumo_output_e1_dets.xml" freq="3600" friendlyPos="x" id="e1det_A_B_0" lane="A_B_0" pos="800"/>
</additional>
