<?xml version="1.0"?>
<routes>
   <route id="route0" edges="A_B B_C"/>
   <flow id="flow0" type="PASSENGER_MOD" route="route0" begin="0" period="0.1" number="13" departSpeed="max"/>
</routes>
