<routes>
    <!-- vType definition -->

    <vType id="EMERGENCY_AMB" vClass="emergency" guiShape="emergency" maxSpeed="13.9" speedFactor="1.5" carFollowModel="IDM">
		<param key="has.bluelight.device" value="true"/>
		<param key="has.fcd.device" value="true"/>
    </vType>
	

    <!-- routes definitions -->
    <route id="emergency_route_0" edges="A_B B_C"/>
    
    <vehicle id="emergency_01" type="EMERGENCY_AMB" depart="200" departSpeed="max" route="emergency_route_0"/>
</routes>
