<?xml version="1.0" encoding="UTF-8"?>

<!-- generated on Sun 17 Nov 2019 01:10:16 CET by Eclipse SUMO netedit Version 1.2.0
<configuration xmlns:xsi="http://www.w3.org/2001/XMLSchema-instance" xsi:noNamespaceSchemaLocation="http://sumo.dlr.de/xsd/netconvertConfiguration.xsd">

    <input>
        <sumo-net-file value="network.net.xml"/>
    </input>

    <output>
        <output-file value="network.net.xml"/>
        <output.street-names value="true"/>
    </output>

    <processing>
        <geometry.max-grade.fix value="false"/>
        <offset.disable-normalization value="true"/>
        <lefthand value="false"/>
    </processing>

    <junctions>
        <no-turnarounds value="true"/>
        <junctions.corner-detail value="5"/>
        <junctions.limit-turn-speed value="5.5"/>
        <rectangular-lane-cut value="false"/>
    </junctions>

    <pedestrian>
        <walkingareas value="false"/>
    </pedestrian>

    <netedit>
        <additional-files value="/home/obrusvit/Tools/sumo-workspace/brno_porici/det_e2_gen.xml"/>
    </netedit>

</configuration>
-->

<additional xmlns:xsi="http://www.w3.org/2001/XMLSchema-instance" xsi:noNamespaceSchemaLocation="http://sumo.dlr.de/xsd/additional_file.xsd">
    <e2Detector id="2_06_e2_east_0" vTypes="PASSENGER_MOD" lanes="-4463914#4.502_1 -4463914#2_0" pos="0.00" freq="900.00" file="output_det_e2.xml" friendlyPos="1" endPos="68.00"/>
    <e2Detector id="2_06_e2_east_1" vTypes="PASSENGER_MOD" lanes="-4463914#4.502_2 -4463914#2_1" pos="0.00" freq="900.00" file="output_det_e2.xml" friendlyPos="1" endPos="68.00"/>
    <e2Detector id="2_06_e2_west_0" vTypes="PASSENGER_MOD" lanes="226151681#0_0 gneE41_0" pos="310.00" freq="900.00" file="output_det_e2.xml" friendlyPos="1" endPos="163.00"/>
    <e2Detector id="2_06_e2_west_1" vTypes="PASSENGER_MOD" lanes="226151681#0_1 gneE41_1" pos="310.00" freq="900.00" file="output_det_e2.xml" friendlyPos="1" endPos="164.00"/>
</additional>
