<additional>
    <edgeData id="measId0" file="output_edgeData.xml" freq="300"/>
</additional>
