<routes>
    <route id="-48024760#1_0_226151680#0_0.qPKW.0" edges="-48024760#1 -4463914#5 -4463914#4.502 -4463914#2 -gneE39 -226151681 -226151681.34 -226151681#1 226151680#0"/>
    <route id="-48024760#1_1_226151680#0_1.qPKW.0" edges="-48024760#1 -4463914#5 -4463914#4.502 -4463914#2 -gneE39 -226151681 -226151681.34 -226151681#1 226151680#0"/>
    <route id="-639397535_1_-328042384_0.qPKW.0" edges="-639397535 gneE40 -16232970 223659906#2 223659906#3 -328042384"/>
    <route id="137307547#0_0_22733769_0.qPKW.0" edges="137307547#0 226151681#0 gneE41 -gneE38 4463914#3 4463914#4 22733769"/>
    <route id="137307547#0_1_48024760#1_2.qPKW.0" edges="137307547#0 226151681#0 gneE41 -gneE38 4463914#3 4463914#4 48024760#1"/>
    <route id="gneE32_0_328165076#1_0.qPKW.0" edges="gneE32 gneE33 gneE37 221128579#1 -gneE40 328165076#1"/>
    <route id="gneE32_0_48024760#1_2.qPKW.0" edges="gneE32 gneE33 gneE37 -gneE38 4463914#3 4463914#4 48024760#1"/>
    <route id="-48024760#1_0_226151680#0_0.qPKW.10" edges="-48024760#1 -4463914#5 -4463914#4.502 -4463914#2 -gneE39 -226151681 -226151681.34 -226151681#1 226151680#0"/>
    <route id="-48024760#1_1_226151680#0_1.qPKW.10" edges="-48024760#1 -4463914#5 -4463914#4.502 -4463914#2 -gneE39 -226151681 -226151681.34 -226151681#1 226151680#0"/>
    <route id="-639397535_0_22733769_0.qPKW.10" edges="-639397535 gneE40 -16232970 -gneE38 4463914#3 4463914#4 22733769"/>
    <route id="-639397535_1_-328042384_0.qPKW.10" edges="-639397535 gneE40 -16232970 223659906#2 223659906#3 -328042384"/>
    <route id="137307547#0_0_328165076#1_0.qPKW.10" edges="137307547#0 226151681#0 gneE41 221128579#1 -gneE40 328165076#1"/>
    <route id="137307547#0_1_48024760#1_2.qPKW.10" edges="137307547#0 226151681#0 gneE41 -gneE38 4463914#3 4463914#4 48024760#1"/>
    <route id="137307547#0_1_-328042384_0.qPKW.10" edges="137307547#0 226151681#0 gneE41 223659906#2 223659906#3 -328042384"/>
    <route id="gneE32_0_226151680#0_0.qPKW.10" edges="gneE32 gneE33 gneE34 -226151681 -226151681.34 -226151681#1 226151680#0"/>
    <route id="gneE32_0_328165076#1_0.qPKW.10" edges="gneE32 gneE33 gneE37 221128579#1 -gneE40 328165076#1"/>
    <route id="gneE32_0_48024760#1_2.qPKW.10" edges="gneE32 gneE33 gneE37 -gneE38 4463914#3 4463914#4 48024760#1"/>
    <route id="-48024760#1_0_226151680#0_0.qPKW.20" edges="-48024760#1 -4463914#5 -4463914#4.502 -4463914#2 -gneE39 -226151681 -226151681.34 -226151681#1 226151680#0"/>
    <route id="-639397535_0_22733769_0.qPKW.20" edges="-639397535 gneE40 -16232970 -gneE38 4463914#3 4463914#4 22733769"/>
    <route id="-639397535_1_-328042384_0.qPKW.20" edges="-639397535 gneE40 -16232970 223659906#2 223659906#3 -328042384"/>
    <route id="137307547#0_0_22733769_0.qPKW.20" edges="137307547#0 226151681#0 gneE41 -gneE38 4463914#3 4463914#4 22733769"/>
    <route id="137307547#0_0_328165076#1_0.qPKW.20" edges="137307547#0 226151681#0 gneE41 221128579#1 -gneE40 328165076#1"/>
    <route id="137307547#0_1_48024760#1_2.qPKW.20" edges="137307547#0 226151681#0 gneE41 -gneE38 4463914#3 4463914#4 48024760#1"/>
    <route id="gneE32_0_328165076#1_0.qPKW.20" edges="gneE32 gneE33 gneE37 221128579#1 -gneE40 328165076#1"/>
    <route id="gneE32_0_48024760#1_2.qPKW.20" edges="gneE32 gneE33 gneE37 -gneE38 4463914#3 4463914#4 48024760#1"/>
    <route id="-48024760#1_0_226151680#0_0.qPKW.30" edges="-48024760#1 -4463914#5 -4463914#4.502 -4463914#2 -gneE39 -226151681 -226151681.34 -226151681#1 226151680#0"/>
    <route id="-48024760#1_1_226151680#0_1.qPKW.30" edges="-48024760#1 -4463914#5 -4463914#4.502 -4463914#2 -gneE39 -226151681 -226151681.34 -226151681#1 226151680#0"/>
    <route id="-639397535_0_22733769_0.qPKW.30" edges="-639397535 gneE40 -16232970 -gneE38 4463914#3 4463914#4 22733769"/>
    <route id="-639397535_1_-328042384_0.qPKW.30" edges="-639397535 gneE40 -16232970 223659906#2 223659906#3 -328042384"/>
    <route id="137307547#0_0_22733769_0.qPKW.30" edges="137307547#0 226151681#0 gneE41 -gneE38 4463914#3 4463914#4 22733769"/>
    <route id="137307547#0_0_328165076#1_0.qPKW.30" edges="137307547#0 226151681#0 gneE41 221128579#1 -gneE40 328165076#1"/>
    <route id="137307547#0_1_48024760#1_2.qPKW.30" edges="137307547#0 226151681#0 gneE41 -gneE38 4463914#3 4463914#4 48024760#1"/>
    <route id="gneE32_0_48024760#1_2.qPKW.30" edges="gneE32 gneE33 gneE37 -gneE38 4463914#3 4463914#4 48024760#1"/>
    <route id="-48024760#1_0_226151680#0_0.qPKW.40" edges="-48024760#1 -4463914#5 -4463914#4.502 -4463914#2 -gneE39 -226151681 -226151681.34 -226151681#1 226151680#0"/>
    <route id="-48024760#1_1_226151680#0_1.qPKW.40" edges="-48024760#1 -4463914#5 -4463914#4.502 -4463914#2 -gneE39 -226151681 -226151681.34 -226151681#1 226151680#0"/>
    <route id="-639397535_0_22733769_0.qPKW.40" edges="-639397535 gneE40 -16232970 -gneE38 4463914#3 4463914#4 22733769"/>
    <route id="-639397535_1_-328042384_0.qPKW.40" edges="-639397535 gneE40 -16232970 223659906#2 223659906#3 -328042384"/>
    <route id="137307547#0_0_22733769_0.qPKW.40" edges="137307547#0 226151681#0 gneE41 -gneE38 4463914#3 4463914#4 22733769"/>
    <route id="137307547#0_0_328165076#1_0.qPKW.40" edges="137307547#0 226151681#0 gneE41 221128579#1 -gneE40 328165076#1"/>
    <route id="137307547#0_1_48024760#1_2.qPKW.40" edges="137307547#0 226151681#0 gneE41 -gneE38 4463914#3 4463914#4 48024760#1"/>
    <route id="137307547#0_1_-328042384_0.qPKW.40" edges="137307547#0 226151681#0 gneE41 223659906#2 223659906#3 -328042384"/>
    <route id="gneE32_0_328165076#1_0.qPKW.40" edges="gneE32 gneE33 gneE37 221128579#1 -gneE40 328165076#1"/>
    <route id="gneE32_0_48024760#1_2.qPKW.40" edges="gneE32 gneE33 gneE37 -gneE38 4463914#3 4463914#4 48024760#1"/>
    <route id="-48024760#1_0_226151680#0_0.qPKW.50" edges="-48024760#1 -4463914#5 -4463914#4.502 -4463914#2 -gneE39 -226151681 -226151681.34 -226151681#1 226151680#0"/>
    <route id="-48024760#1_1_226151680#0_1.qPKW.50" edges="-48024760#1 -4463914#5 -4463914#4.502 -4463914#2 -gneE39 -226151681 -226151681.34 -226151681#1 226151680#0"/>
    <route id="-639397535_0_22733769_0.qPKW.50" edges="-639397535 gneE40 -16232970 -gneE38 4463914#3 4463914#4 22733769"/>
    <route id="-639397535_1_-328042384_0.qPKW.50" edges="-639397535 gneE40 -16232970 223659906#2 223659906#3 -328042384"/>
    <route id="137307547#0_0_48024760#1_1.qPKW.50" edges="137307547#0 226151681#0 gneE41 -gneE38 4463914#3 4463914#4 48024760#1"/>
    <route id="137307547#0_0_328165076#1_0.qPKW.50" edges="137307547#0 226151681#0 gneE41 221128579#1 -gneE40 328165076#1"/>
    <route id="137307547#0_1_48024760#1_2.qPKW.50" edges="137307547#0 226151681#0 gneE41 -gneE38 4463914#3 4463914#4 48024760#1"/>
    <route id="gneE32_0_48024760#1_2.qPKW.50" edges="gneE32 gneE33 gneE37 -gneE38 4463914#3 4463914#4 48024760#1"/>
    <route id="-48024760#1_0_226151680#0_0.qPKW.60" edges="-48024760#1 -4463914#5 -4463914#4.502 -4463914#2 -gneE39 -226151681 -226151681.34 -226151681#1 226151680#0"/>
    <route id="-48024760#1_1_226151680#0_1.qPKW.60" edges="-48024760#1 -4463914#5 -4463914#4.502 -4463914#2 -gneE39 -226151681 -226151681.34 -226151681#1 226151680#0"/>
    <route id="-639397535_0_22733769_0.qPKW.60" edges="-639397535 gneE40 -16232970 -gneE38 4463914#3 4463914#4 22733769"/>
    <route id="-639397535_1_-328042384_0.qPKW.60" edges="-639397535 gneE40 -16232970 223659906#2 223659906#3 -328042384"/>
    <route id="137307547#0_0_22733769_0.qPKW.60" edges="137307547#0 226151681#0 gneE41 -gneE38 4463914#3 4463914#4 22733769"/>
    <route id="137307547#0_0_48024760#1_1.qPKW.60" edges="137307547#0 226151681#0 gneE41 -gneE38 4463914#3 4463914#4 48024760#1"/>
    <route id="137307547#0_0_328165076#1_0.qPKW.60" edges="137307547#0 226151681#0 gneE41 221128579#1 -gneE40 328165076#1"/>
    <route id="137307547#0_1_48024760#1_2.qPKW.60" edges="137307547#0 226151681#0 gneE41 -gneE38 4463914#3 4463914#4 48024760#1"/>
    <route id="137307547#0_1_-328042384_0.qPKW.60" edges="137307547#0 226151681#0 gneE41 223659906#2 223659906#3 -328042384"/>
    <route id="gneE32_0_226151680#0_0.qPKW.60" edges="gneE32 gneE33 gneE34 -226151681 -226151681.34 -226151681#1 226151680#0"/>
    <route id="gneE32_0_328165076#1_0.qPKW.60" edges="gneE32 gneE33 gneE37 221128579#1 -gneE40 328165076#1"/>
    <route id="gneE32_0_48024760#1_2.qPKW.60" edges="gneE32 gneE33 gneE37 -gneE38 4463914#3 4463914#4 48024760#1"/>
    <route id="-48024760#1_0_226151680#0_0.qPKW.70" edges="-48024760#1 -4463914#5 -4463914#4.502 -4463914#2 -gneE39 -226151681 -226151681.34 -226151681#1 226151680#0"/>
    <route id="-48024760#1_1_226151680#0_1.qPKW.70" edges="-48024760#1 -4463914#5 -4463914#4.502 -4463914#2 -gneE39 -226151681 -226151681.34 -226151681#1 226151680#0"/>
    <route id="-639397535_0_22733769_0.qPKW.70" edges="-639397535 gneE40 -16232970 -gneE38 4463914#3 4463914#4 22733769"/>
    <route id="137307547#0_0_48024760#1_1.qPKW.70" edges="137307547#0 226151681#0 gneE41 -gneE38 4463914#3 4463914#4 48024760#1"/>
    <route id="137307547#0_0_328165076#1_0.qPKW.70" edges="137307547#0 226151681#0 gneE41 221128579#1 -gneE40 328165076#1"/>
    <route id="137307547#0_1_48024760#1_2.qPKW.70" edges="137307547#0 226151681#0 gneE41 -gneE38 4463914#3 4463914#4 48024760#1"/>
    <route id="gneE32_0_328165076#1_0.qPKW.70" edges="gneE32 gneE33 gneE37 221128579#1 -gneE40 328165076#1"/>
    <route id="-48024760#1_0_226151680#0_0.qPKW.80" edges="-48024760#1 -4463914#5 -4463914#4.502 -4463914#2 -gneE39 -226151681 -226151681.34 -226151681#1 226151680#0"/>
    <route id="-639397535_0_22733769_0.qPKW.80" edges="-639397535 gneE40 -16232970 -gneE38 4463914#3 4463914#4 22733769"/>
    <route id="-639397535_1_-328042384_0.qPKW.80" edges="-639397535 gneE40 -16232970 223659906#2 223659906#3 -328042384"/>
    <route id="137307547#0_0_328165076#1_0.qPKW.80" edges="137307547#0 226151681#0 gneE41 221128579#1 -gneE40 328165076#1"/>
    <route id="gneE32_0_226151680#0_0.qPKW.80" edges="gneE32 gneE33 gneE34 -226151681 -226151681.34 -226151681#1 226151680#0"/>
    <route id="gneE32_0_48024760#1_2.qPKW.80" edges="gneE32 gneE33 gneE37 -gneE38 4463914#3 4463914#4 48024760#1"/>
    <route id="-48024760#1_0_226151680#0_0.qPKW.90" edges="-48024760#1 -4463914#5 -4463914#4.502 -4463914#2 -gneE39 -226151681 -226151681.34 -226151681#1 226151680#0"/>
    <route id="-48024760#1_1_226151680#0_1.qPKW.90" edges="-48024760#1 -4463914#5 -4463914#4.502 -4463914#2 -gneE39 -226151681 -226151681.34 -226151681#1 226151680#0"/>
    <route id="-639397535_0_22733769_0.qPKW.90" edges="-639397535 gneE40 -16232970 -gneE38 4463914#3 4463914#4 22733769"/>
    <route id="-639397535_1_-328042384_0.qPKW.90" edges="-639397535 gneE40 -16232970 223659906#2 223659906#3 -328042384"/>
    <route id="137307547#0_1_48024760#1_2.qPKW.90" edges="137307547#0 226151681#0 gneE41 -gneE38 4463914#3 4463914#4 48024760#1"/>
    <route id="gneE32_0_226151680#0_0.qPKW.90" edges="gneE32 gneE33 gneE34 -226151681 -226151681.34 -226151681#1 226151680#0"/>
    <route id="gneE32_0_328165076#1_0.qPKW.90" edges="gneE32 gneE33 gneE37 221128579#1 -gneE40 328165076#1"/>
    <route id="gneE32_0_48024760#1_2.qPKW.90" edges="gneE32 gneE33 gneE37 -gneE38 4463914#3 4463914#4 48024760#1"/>
    <route id="-48024760#1_0_226151680#0_0.qPKW.100" edges="-48024760#1 -4463914#5 -4463914#4.502 -4463914#2 -gneE39 -226151681 -226151681.34 -226151681#1 226151680#0"/>
    <route id="-48024760#1_1_226151680#0_1.qPKW.100" edges="-48024760#1 -4463914#5 -4463914#4.502 -4463914#2 -gneE39 -226151681 -226151681.34 -226151681#1 226151680#0"/>
    <route id="-639397535_1_-328042384_0.qPKW.100" edges="-639397535 gneE40 -16232970 223659906#2 223659906#3 -328042384"/>
    <route id="137307547#0_0_22733769_0.qPKW.100" edges="137307547#0 226151681#0 gneE41 -gneE38 4463914#3 4463914#4 22733769"/>
    <route id="137307547#0_1_48024760#1_2.qPKW.100" edges="137307547#0 226151681#0 gneE41 -gneE38 4463914#3 4463914#4 48024760#1"/>
    <route id="gneE32_0_328165076#1_0.qPKW.100" edges="gneE32 gneE33 gneE37 221128579#1 -gneE40 328165076#1"/>
    <route id="gneE32_0_48024760#1_2.qPKW.100" edges="gneE32 gneE33 gneE37 -gneE38 4463914#3 4463914#4 48024760#1"/>
    <route id="-48024760#1_0_226151680#0_0.qPKW.110" edges="-48024760#1 -4463914#5 -4463914#4.502 -4463914#2 -gneE39 -226151681 -226151681.34 -226151681#1 226151680#0"/>
    <route id="-48024760#1_1_226151680#0_1.qPKW.110" edges="-48024760#1 -4463914#5 -4463914#4.502 -4463914#2 -gneE39 -226151681 -226151681.34 -226151681#1 226151680#0"/>
    <route id="-639397535_0_22733769_0.qPKW.110" edges="-639397535 gneE40 -16232970 -gneE38 4463914#3 4463914#4 22733769"/>
    <route id="-639397535_1_-328042384_0.qPKW.110" edges="-639397535 gneE40 -16232970 223659906#2 223659906#3 -328042384"/>
    <route id="137307547#0_0_22733769_0.qPKW.110" edges="137307547#0 226151681#0 gneE41 -gneE38 4463914#3 4463914#4 22733769"/>
    <route id="137307547#0_0_328165076#1_0.qPKW.110" edges="137307547#0 226151681#0 gneE41 221128579#1 -gneE40 328165076#1"/>
    <route id="137307547#0_1_48024760#1_2.qPKW.110" edges="137307547#0 226151681#0 gneE41 -gneE38 4463914#3 4463914#4 48024760#1"/>
    <route id="137307547#0_1_-328042384_0.qPKW.110" edges="137307547#0 226151681#0 gneE41 223659906#2 223659906#3 -328042384"/>
    <route id="gneE32_0_226151680#0_0.qPKW.110" edges="gneE32 gneE33 gneE34 -226151681 -226151681.34 -226151681#1 226151680#0"/>
    <route id="gneE32_0_48024760#1_2.qPKW.110" edges="gneE32 gneE33 gneE37 -gneE38 4463914#3 4463914#4 48024760#1"/>
    <route id="-48024760#1_0_226151680#0_0.qPKW.120" edges="-48024760#1 -4463914#5 -4463914#4.502 -4463914#2 -gneE39 -226151681 -226151681.34 -226151681#1 226151680#0"/>
    <route id="-48024760#1_1_226151680#0_1.qPKW.120" edges="-48024760#1 -4463914#5 -4463914#4.502 -4463914#2 -gneE39 -226151681 -226151681.34 -226151681#1 226151680#0"/>
    <route id="-639397535_0_22733769_0.qPKW.120" edges="-639397535 gneE40 -16232970 -gneE38 4463914#3 4463914#4 22733769"/>
    <route id="-639397535_1_-328042384_0.qPKW.120" edges="-639397535 gneE40 -16232970 223659906#2 223659906#3 -328042384"/>
    <route id="137307547#0_0_22733769_0.qPKW.120" edges="137307547#0 226151681#0 gneE41 -gneE38 4463914#3 4463914#4 22733769"/>
    <route id="137307547#0_0_328165076#1_0.qPKW.120" edges="137307547#0 226151681#0 gneE41 221128579#1 -gneE40 328165076#1"/>
    <route id="137307547#0_1_48024760#1_2.qPKW.120" edges="137307547#0 226151681#0 gneE41 -gneE38 4463914#3 4463914#4 48024760#1"/>
    <route id="gneE32_0_48024760#1_2.qPKW.120" edges="gneE32 gneE33 gneE37 -gneE38 4463914#3 4463914#4 48024760#1"/>
    <route id="-639397535_1_-328042384_0.qPKW.130" edges="-639397535 gneE40 -16232970 223659906#2 223659906#3 -328042384"/>
    <route id="137307547#0_0_22733769_0.qPKW.130" edges="137307547#0 226151681#0 gneE41 -gneE38 4463914#3 4463914#4 22733769"/>
    <route id="137307547#0_1_48024760#1_2.qPKW.130" edges="137307547#0 226151681#0 gneE41 -gneE38 4463914#3 4463914#4 48024760#1"/>
    <route id="gneE32_0_328165076#1_0.qPKW.130" edges="gneE32 gneE33 gneE37 221128579#1 -gneE40 328165076#1"/>
    <route id="gneE32_0_48024760#1_2.qPKW.130" edges="gneE32 gneE33 gneE37 -gneE38 4463914#3 4463914#4 48024760#1"/>
    <route id="-48024760#1_0_226151680#0_0.qPKW.140" edges="-48024760#1 -4463914#5 -4463914#4.502 -4463914#2 -gneE39 -226151681 -226151681.34 -226151681#1 226151680#0"/>
    <route id="-639397535_0_22733769_0.qPKW.140" edges="-639397535 gneE40 -16232970 -gneE38 4463914#3 4463914#4 22733769"/>
    <route id="-639397535_1_-328042384_0.qPKW.140" edges="-639397535 gneE40 -16232970 223659906#2 223659906#3 -328042384"/>
    <route id="137307547#0_0_22733769_0.qPKW.140" edges="137307547#0 226151681#0 gneE41 -gneE38 4463914#3 4463914#4 22733769"/>
    <route id="137307547#0_0_48024760#1_1.qPKW.140" edges="137307547#0 226151681#0 gneE41 -gneE38 4463914#3 4463914#4 48024760#1"/>
    <route id="137307547#0_0_328165076#1_0.qPKW.140" edges="137307547#0 226151681#0 gneE41 221128579#1 -gneE40 328165076#1"/>
    <route id="137307547#0_1_48024760#1_2.qPKW.140" edges="137307547#0 226151681#0 gneE41 -gneE38 4463914#3 4463914#4 48024760#1"/>
    <route id="gneE32_0_226151680#0_0.qPKW.140" edges="gneE32 gneE33 gneE34 -226151681 -226151681.34 -226151681#1 226151680#0"/>
    <route id="gneE32_0_328165076#1_0.qPKW.140" edges="gneE32 gneE33 gneE37 221128579#1 -gneE40 328165076#1"/>
    <route id="gneE32_0_48024760#1_2.qPKW.140" edges="gneE32 gneE33 gneE37 -gneE38 4463914#3 4463914#4 48024760#1"/>
    <route id="-48024760#1_0_226151680#0_0.qPKW.150" edges="-48024760#1 -4463914#5 -4463914#4.502 -4463914#2 -gneE39 -226151681 -226151681.34 -226151681#1 226151680#0"/>
    <route id="-48024760#1_1_226151680#0_1.qPKW.150" edges="-48024760#1 -4463914#5 -4463914#4.502 -4463914#2 -gneE39 -226151681 -226151681.34 -226151681#1 226151680#0"/>
    <route id="-639397535_1_-328042384_0.qPKW.150" edges="-639397535 gneE40 -16232970 223659906#2 223659906#3 -328042384"/>
    <route id="137307547#0_1_48024760#1_2.qPKW.150" edges="137307547#0 226151681#0 gneE41 -gneE38 4463914#3 4463914#4 48024760#1"/>
    <route id="-48024760#1_1_226151680#0_1.qPKW.160" edges="-48024760#1 -4463914#5 -4463914#4.502 -4463914#2 -gneE39 -226151681 -226151681.34 -226151681#1 226151680#0"/>
    <route id="-639397535_0_22733769_0.qPKW.160" edges="-639397535 gneE40 -16232970 -gneE38 4463914#3 4463914#4 22733769"/>
    <route id="-639397535_1_-328042384_0.qPKW.160" edges="-639397535 gneE40 -16232970 223659906#2 223659906#3 -328042384"/>
    <route id="137307547#0_0_22733769_0.qPKW.160" edges="137307547#0 226151681#0 gneE41 -gneE38 4463914#3 4463914#4 22733769"/>
    <route id="137307547#0_0_328165076#1_0.qPKW.160" edges="137307547#0 226151681#0 gneE41 221128579#1 -gneE40 328165076#1"/>
    <route id="137307547#0_1_48024760#1_2.qPKW.160" edges="137307547#0 226151681#0 gneE41 -gneE38 4463914#3 4463914#4 48024760#1"/>
    <route id="137307547#0_1_-328042384_0.qPKW.160" edges="137307547#0 226151681#0 gneE41 223659906#2 223659906#3 -328042384"/>
    <route id="gneE32_0_328165076#1_0.qPKW.160" edges="gneE32 gneE33 gneE37 221128579#1 -gneE40 328165076#1"/>
    <route id="gneE32_0_48024760#1_2.qPKW.160" edges="gneE32 gneE33 gneE37 -gneE38 4463914#3 4463914#4 48024760#1"/>
    <route id="-48024760#1_1_226151680#0_1.qPKW.170" edges="-48024760#1 -4463914#5 -4463914#4.502 -4463914#2 -gneE39 -226151681 -226151681.34 -226151681#1 226151680#0"/>
    <route id="-639397535_1_-328042384_0.qPKW.170" edges="-639397535 gneE40 -16232970 223659906#2 223659906#3 -328042384"/>
    <route id="137307547#0_0_22733769_0.qPKW.170" edges="137307547#0 226151681#0 gneE41 -gneE38 4463914#3 4463914#4 22733769"/>
    <route id="137307547#0_1_48024760#1_2.qPKW.170" edges="137307547#0 226151681#0 gneE41 -gneE38 4463914#3 4463914#4 48024760#1"/>
    <route id="gneE32_0_328165076#1_0.qPKW.170" edges="gneE32 gneE33 gneE37 221128579#1 -gneE40 328165076#1"/>
    <route id="-48024760#1_0_226151680#0_0.qPKW.180" edges="-48024760#1 -4463914#5 -4463914#4.502 -4463914#2 -gneE39 -226151681 -226151681.34 -226151681#1 226151680#0"/>
    <route id="-48024760#1_1_226151680#0_1.qPKW.180" edges="-48024760#1 -4463914#5 -4463914#4.502 -4463914#2 -gneE39 -226151681 -226151681.34 -226151681#1 226151680#0"/>
    <route id="-639397535_1_-328042384_0.qPKW.180" edges="-639397535 gneE40 -16232970 223659906#2 223659906#3 -328042384"/>
    <route id="137307547#0_0_22733769_0.qPKW.180" edges="137307547#0 226151681#0 gneE41 -gneE38 4463914#3 4463914#4 22733769"/>
    <route id="gneE32_0_328165076#1_0.qPKW.180" edges="gneE32 gneE33 gneE37 221128579#1 -gneE40 328165076#1"/>
    <route id="-48024760#1_0_226151680#0_0.qPKW.190" edges="-48024760#1 -4463914#5 -4463914#4.502 -4463914#2 -gneE39 -226151681 -226151681.34 -226151681#1 226151680#0"/>
    <route id="-48024760#1_1_226151680#0_1.qPKW.190" edges="-48024760#1 -4463914#5 -4463914#4.502 -4463914#2 -gneE39 -226151681 -226151681.34 -226151681#1 226151680#0"/>
    <route id="-639397535_0_22733769_0.qPKW.190" edges="-639397535 gneE40 -16232970 -gneE38 4463914#3 4463914#4 22733769"/>
    <route id="-639397535_1_-328042384_0.qPKW.190" edges="-639397535 gneE40 -16232970 223659906#2 223659906#3 -328042384"/>
    <route id="137307547#0_0_22733769_0.qPKW.190" edges="137307547#0 226151681#0 gneE41 -gneE38 4463914#3 4463914#4 22733769"/>
    <route id="137307547#0_0_328165076#1_0.qPKW.190" edges="137307547#0 226151681#0 gneE41 221128579#1 -gneE40 328165076#1"/>
    <route id="137307547#0_1_48024760#1_2.qPKW.190" edges="137307547#0 226151681#0 gneE41 -gneE38 4463914#3 4463914#4 48024760#1"/>
    <route id="137307547#0_1_-328042384_0.qPKW.190" edges="137307547#0 226151681#0 gneE41 223659906#2 223659906#3 -328042384"/>
    <route id="gneE32_0_328165076#1_0.qPKW.190" edges="gneE32 gneE33 gneE37 221128579#1 -gneE40 328165076#1"/>
    <route id="gneE32_0_48024760#1_2.qPKW.190" edges="gneE32 gneE33 gneE37 -gneE38 4463914#3 4463914#4 48024760#1"/>
    <route id="-48024760#1_0_226151680#0_0.qPKW.200" edges="-48024760#1 -4463914#5 -4463914#4.502 -4463914#2 -gneE39 -226151681 -226151681.34 -226151681#1 226151680#0"/>
    <route id="-48024760#1_1_226151680#0_1.qPKW.200" edges="-48024760#1 -4463914#5 -4463914#4.502 -4463914#2 -gneE39 -226151681 -226151681.34 -226151681#1 226151680#0"/>
    <route id="-639397535_1_-328042384_0.qPKW.200" edges="-639397535 gneE40 -16232970 223659906#2 223659906#3 -328042384"/>
    <route id="137307547#0_0_22733769_0.qPKW.200" edges="137307547#0 226151681#0 gneE41 -gneE38 4463914#3 4463914#4 22733769"/>
    <route id="137307547#0_1_48024760#1_2.qPKW.200" edges="137307547#0 226151681#0 gneE41 -gneE38 4463914#3 4463914#4 48024760#1"/>
    <route id="gneE32_0_328165076#1_0.qPKW.200" edges="gneE32 gneE33 gneE37 221128579#1 -gneE40 328165076#1"/>
    <route id="gneE32_0_48024760#1_2.qPKW.200" edges="gneE32 gneE33 gneE37 -gneE38 4463914#3 4463914#4 48024760#1"/>
    <route id="-48024760#1_0_226151680#0_0.qPKW.210" edges="-48024760#1 -4463914#5 -4463914#4.502 -4463914#2 -gneE39 -226151681 -226151681.34 -226151681#1 226151680#0"/>
    <route id="-48024760#1_1_226151680#0_1.qPKW.210" edges="-48024760#1 -4463914#5 -4463914#4.502 -4463914#2 -gneE39 -226151681 -226151681.34 -226151681#1 226151680#0"/>
    <route id="-639397535_0_22733769_0.qPKW.210" edges="-639397535 gneE40 -16232970 -gneE38 4463914#3 4463914#4 22733769"/>
    <route id="-639397535_1_-328042384_0.qPKW.210" edges="-639397535 gneE40 -16232970 223659906#2 223659906#3 -328042384"/>
    <route id="137307547#0_0_328165076#1_0.qPKW.210" edges="137307547#0 226151681#0 gneE41 221128579#1 -gneE40 328165076#1"/>
    <route id="137307547#0_1_48024760#1_2.qPKW.210" edges="137307547#0 226151681#0 gneE41 -gneE38 4463914#3 4463914#4 48024760#1"/>
    <route id="137307547#0_1_-328042384_0.qPKW.210" edges="137307547#0 226151681#0 gneE41 223659906#2 223659906#3 -328042384"/>
    <route id="gneE32_0_226151680#0_0.qPKW.210" edges="gneE32 gneE33 gneE34 -226151681 -226151681.34 -226151681#1 226151680#0"/>
    <route id="gneE32_0_48024760#1_2.qPKW.210" edges="gneE32 gneE33 gneE37 -gneE38 4463914#3 4463914#4 48024760#1"/>
    <route id="-48024760#1_0_226151680#0_0.qPKW.220" edges="-48024760#1 -4463914#5 -4463914#4.502 -4463914#2 -gneE39 -226151681 -226151681.34 -226151681#1 226151680#0"/>
    <route id="-48024760#1_1_226151680#0_1.qPKW.220" edges="-48024760#1 -4463914#5 -4463914#4.502 -4463914#2 -gneE39 -226151681 -226151681.34 -226151681#1 226151680#0"/>
    <route id="-639397535_0_22733769_0.qPKW.220" edges="-639397535 gneE40 -16232970 -gneE38 4463914#3 4463914#4 22733769"/>
    <route id="-639397535_1_-328042384_0.qPKW.220" edges="-639397535 gneE40 -16232970 223659906#2 223659906#3 -328042384"/>
    <route id="137307547#0_0_48024760#1_1.qPKW.220" edges="137307547#0 226151681#0 gneE41 -gneE38 4463914#3 4463914#4 48024760#1"/>
    <route id="137307547#0_0_328165076#1_0.qPKW.220" edges="137307547#0 226151681#0 gneE41 221128579#1 -gneE40 328165076#1"/>
    <route id="137307547#0_1_48024760#1_2.qPKW.220" edges="137307547#0 226151681#0 gneE41 -gneE38 4463914#3 4463914#4 48024760#1"/>
    <route id="gneE32_0_226151680#0_0.qPKW.220" edges="gneE32 gneE33 gneE34 -226151681 -226151681.34 -226151681#1 226151680#0"/>
    <route id="gneE32_0_48024760#1_2.qPKW.220" edges="gneE32 gneE33 gneE37 -gneE38 4463914#3 4463914#4 48024760#1"/>
    <route id="-48024760#1_0_226151680#0_0.qPKW.230" edges="-48024760#1 -4463914#5 -4463914#4.502 -4463914#2 -gneE39 -226151681 -226151681.34 -226151681#1 226151680#0"/>
    <route id="-48024760#1_1_226151680#0_1.qPKW.230" edges="-48024760#1 -4463914#5 -4463914#4.502 -4463914#2 -gneE39 -226151681 -226151681.34 -226151681#1 226151680#0"/>
    <route id="-639397535_0_22733769_0.qPKW.230" edges="-639397535 gneE40 -16232970 -gneE38 4463914#3 4463914#4 22733769"/>
    <route id="-639397535_1_-328042384_0.qPKW.230" edges="-639397535 gneE40 -16232970 223659906#2 223659906#3 -328042384"/>
    <route id="137307547#0_0_22733769_0.qPKW.230" edges="137307547#0 226151681#0 gneE41 -gneE38 4463914#3 4463914#4 22733769"/>
    <route id="137307547#0_0_328165076#1_0.qPKW.230" edges="137307547#0 226151681#0 gneE41 221128579#1 -gneE40 328165076#1"/>
    <route id="137307547#0_1_48024760#1_2.qPKW.230" edges="137307547#0 226151681#0 gneE41 -gneE38 4463914#3 4463914#4 48024760#1"/>
    <route id="137307547#0_1_-328042384_0.qPKW.230" edges="137307547#0 226151681#0 gneE41 223659906#2 223659906#3 -328042384"/>
    <route id="gneE32_0_48024760#1_2.qPKW.230" edges="gneE32 gneE33 gneE37 -gneE38 4463914#3 4463914#4 48024760#1"/>
    <route id="-48024760#1_0_226151680#0_0.qPKW.240" edges="-48024760#1 -4463914#5 -4463914#4.502 -4463914#2 -gneE39 -226151681 -226151681.34 -226151681#1 226151680#0"/>
    <route id="-48024760#1_1_226151680#0_1.qPKW.240" edges="-48024760#1 -4463914#5 -4463914#4.502 -4463914#2 -gneE39 -226151681 -226151681.34 -226151681#1 226151680#0"/>
    <route id="-639397535_0_22733769_0.qPKW.240" edges="-639397535 gneE40 -16232970 -gneE38 4463914#3 4463914#4 22733769"/>
    <route id="-639397535_1_-328042384_0.qPKW.240" edges="-639397535 gneE40 -16232970 223659906#2 223659906#3 -328042384"/>
    <route id="137307547#0_0_48024760#1_1.qPKW.240" edges="137307547#0 226151681#0 gneE41 -gneE38 4463914#3 4463914#4 48024760#1"/>
    <route id="137307547#0_0_328165076#1_0.qPKW.240" edges="137307547#0 226151681#0 gneE41 221128579#1 -gneE40 328165076#1"/>
    <route id="137307547#0_1_48024760#1_2.qPKW.240" edges="137307547#0 226151681#0 gneE41 -gneE38 4463914#3 4463914#4 48024760#1"/>
    <route id="gneE32_0_226151680#0_0.qPKW.240" edges="gneE32 gneE33 gneE34 -226151681 -226151681.34 -226151681#1 226151680#0"/>
    <route id="gneE32_0_48024760#1_2.qPKW.240" edges="gneE32 gneE33 gneE37 -gneE38 4463914#3 4463914#4 48024760#1"/>
    <route id="-48024760#1_0_226151680#0_0.qPKW.250" edges="-48024760#1 -4463914#5 -4463914#4.502 -4463914#2 -gneE39 -226151681 -226151681.34 -226151681#1 226151680#0"/>
    <route id="-48024760#1_1_226151680#0_1.qPKW.250" edges="-48024760#1 -4463914#5 -4463914#4.502 -4463914#2 -gneE39 -226151681 -226151681.34 -226151681#1 226151680#0"/>
    <route id="-639397535_1_-328042384_0.qPKW.250" edges="-639397535 gneE40 -16232970 223659906#2 223659906#3 -328042384"/>
    <route id="137307547#0_0_22733769_0.qPKW.250" edges="137307547#0 226151681#0 gneE41 -gneE38 4463914#3 4463914#4 22733769"/>
    <route id="137307547#0_1_48024760#1_2.qPKW.250" edges="137307547#0 226151681#0 gneE41 -gneE38 4463914#3 4463914#4 48024760#1"/>
    <route id="gneE32_0_328165076#1_0.qPKW.250" edges="gneE32 gneE33 gneE37 221128579#1 -gneE40 328165076#1"/>
    <route id="gneE32_0_48024760#1_2.qPKW.250" edges="gneE32 gneE33 gneE37 -gneE38 4463914#3 4463914#4 48024760#1"/>
    <route id="-48024760#1_0_226151680#0_0.qPKW.260" edges="-48024760#1 -4463914#5 -4463914#4.502 -4463914#2 -gneE39 -226151681 -226151681.34 -226151681#1 226151680#0"/>
    <route id="-48024760#1_1_226151680#0_1.qPKW.260" edges="-48024760#1 -4463914#5 -4463914#4.502 -4463914#2 -gneE39 -226151681 -226151681.34 -226151681#1 226151680#0"/>
    <route id="-639397535_0_22733769_0.qPKW.260" edges="-639397535 gneE40 -16232970 -gneE38 4463914#3 4463914#4 22733769"/>
    <route id="-639397535_1_-328042384_0.qPKW.260" edges="-639397535 gneE40 -16232970 223659906#2 223659906#3 -328042384"/>
    <route id="137307547#0_0_48024760#1_1.qPKW.260" edges="137307547#0 226151681#0 gneE41 -gneE38 4463914#3 4463914#4 48024760#1"/>
    <route id="137307547#0_0_328165076#1_0.qPKW.260" edges="137307547#0 226151681#0 gneE41 221128579#1 -gneE40 328165076#1"/>
    <route id="137307547#0_1_48024760#1_2.qPKW.260" edges="137307547#0 226151681#0 gneE41 -gneE38 4463914#3 4463914#4 48024760#1"/>
    <route id="gneE32_0_226151680#0_0.qPKW.260" edges="gneE32 gneE33 gneE34 -226151681 -226151681.34 -226151681#1 226151680#0"/>
    <route id="gneE32_0_328165076#1_0.qPKW.260" edges="gneE32 gneE33 gneE37 221128579#1 -gneE40 328165076#1"/>
    <route id="gneE32_0_48024760#1_2.qPKW.260" edges="gneE32 gneE33 gneE37 -gneE38 4463914#3 4463914#4 48024760#1"/>
    <route id="-48024760#1_0_226151680#0_0.qPKW.270" edges="-48024760#1 -4463914#5 -4463914#4.502 -4463914#2 -gneE39 -226151681 -226151681.34 -226151681#1 226151680#0"/>
    <route id="-48024760#1_1_226151680#0_1.qPKW.270" edges="-48024760#1 -4463914#5 -4463914#4.502 -4463914#2 -gneE39 -226151681 -226151681.34 -226151681#1 226151680#0"/>
    <route id="-639397535_0_22733769_0.qPKW.270" edges="-639397535 gneE40 -16232970 -gneE38 4463914#3 4463914#4 22733769"/>
    <route id="-639397535_1_-328042384_0.qPKW.270" edges="-639397535 gneE40 -16232970 223659906#2 223659906#3 -328042384"/>
    <route id="137307547#0_0_22733769_0.qPKW.270" edges="137307547#0 226151681#0 gneE41 -gneE38 4463914#3 4463914#4 22733769"/>
    <route id="137307547#0_0_328165076#1_0.qPKW.270" edges="137307547#0 226151681#0 gneE41 221128579#1 -gneE40 328165076#1"/>