<additional>
    <flow id="-48024760#1_0_226151680#0_0.qPKW.0" type="PASSENGER_MOD" departLane="best" route="-48024760#1_0_226151680#0_0.qPKW.0" number="2" begin="0" end="600"/>
    <flow id="-48024760#1_1_226151680#0_1.qPKW.0" type="PASSENGER_MOD" departLane="best" route="-48024760#1_1_226151680#0_1.qPKW.0" number="2" begin="0" end="600"/>
    <flow id="-639397535_1_-328042384_0.qPKW.0" type="PASSENGER_MOD" departLane="best" route="-639397535_1_-328042384_0.qPKW.0" number="2" begin="0" end="600"/>
    <flow id="137307547#0_0_22733769_0.qPKW.0" type="PASSENGER_MOD" departLane="best" route="137307547#0_0_22733769_0.qPKW.0" number="5" begin="0" end="600"/>
    <flow id="137307547#0_1_48024760#1_2.qPKW.0" type="PASSENGER_MOD" departLane="best" route="137307547#0_1_48024760#1_2.qPKW.0" number="2" begin="0" end="600"/>
    <flow id="gneE32_0_328165076#1_0.qPKW.0" type="PASSENGER_MOD" departLane="best" route="gneE32_0_328165076#1_0.qPKW.0" number="6" begin="0" end="600"/>
    <flow id="gneE32_0_48024760#1_2.qPKW.0" type="PASSENGER_MOD" departLane="best" route="gneE32_0_48024760#1_2.qPKW.0" number="2" begin="0" end="600"/>
    <flow id="-48024760#1_0_226151680#0_0.qPKW.10" type="PASSENGER_MOD" departLane="best" route="-48024760#1_0_226151680#0_0.qPKW.10" number="3" begin="600" end="1200"/>
    <flow id="-48024760#1_1_226151680#0_1.qPKW.10" type="PASSENGER_MOD" departLane="best" route="-48024760#1_1_226151680#0_1.qPKW.10" number="1" begin="600" end="1200"/>
    <flow id="-639397535_0_22733769_0.qPKW.10" type="PASSENGER_MOD" departLane="best" route="-639397535_0_22733769_0.qPKW.10" number="2" begin="600" end="1200"/>
    <flow id="-639397535_1_-328042384_0.qPKW.10" type="PASSENGER_MOD" departLane="best" route="-639397535_1_-328042384_0.qPKW.10" number="5" begin="600" end="1200"/>
    <flow id="137307547#0_0_328165076#1_0.qPKW.10" type="PASSENGER_MOD" departLane="best" route="137307547#0_0_328165076#1_0.qPKW.10" number="4" begin="600" end="1200"/>
    <flow id="137307547#0_1_48024760#1_2.qPKW.10" type="PASSENGER_MOD" departLane="best" route="137307547#0_1_48024760#1_2.qPKW.10" number="2" begin="600" end="1200"/>
    <flow id="137307547#0_1_-328042384_0.qPKW.10" type="PASSENGER_MOD" departLane="best" route="137307547#0_1_-328042384_0.qPKW.10" number="1" begin="600" end="1200"/>
    <flow id="gneE32_0_226151680#0_0.qPKW.10" type="PASSENGER_MOD" departLane="best" route="gneE32_0_226151680#0_0.qPKW.10" number="5" begin="600" end="1200"/>
    <flow id="gneE32_0_328165076#1_0.qPKW.10" type="PASSENGER_MOD" departLane="best" route="gneE32_0_328165076#1_0.qPKW.10" number="3" begin="600" end="1200"/>
    <flow id="gneE32_0_48024760#1_2.qPKW.10" type="PASSENGER_MOD" departLane="best" route="gneE32_0_48024760#1_2.qPKW.10" number="3" begin="600" end="1200"/>
    <flow id="-48024760#1_0_226151680#0_0.qPKW.20" type="PASSENGER_MOD" departLane="best" route="-48024760#1_0_226151680#0_0.qPKW.20" number="4" begin="1200" end="1800"/>
    <flow id="-639397535_0_22733769_0.qPKW.20" type="PASSENGER_MOD" departLane="best" route="-639397535_0_22733769_0.qPKW.20" number="1" begin="1200" end="1800"/>
    <flow id="-639397535_1_-328042384_0.qPKW.20" type="PASSENGER_MOD" departLane="best" route="-639397535_1_-328042384_0.qPKW.20" number="2" begin="1200" end="1800"/>
    <flow id="137307547#0_0_22733769_0.qPKW.20" type="PASSENGER_MOD" departLane="best" route="137307547#0_0_22733769_0.qPKW.20" number="7" begin="1200" end="1800"/>
    <flow id="137307547#0_0_328165076#1_0.qPKW.20" type="PASSENGER_MOD" departLane="best" route="137307547#0_0_328165076#1_0.qPKW.20" number="1" begin="1200" end="1800"/>
    <flow id="137307547#0_1_48024760#1_2.qPKW.20" type="PASSENGER_MOD" departLane="best" route="137307547#0_1_48024760#1_2.qPKW.20" number="2" begin="1200" end="1800"/>
    <flow id="gneE32_0_328165076#1_0.qPKW.20" type="PASSENGER_MOD" departLane="best" route="gneE32_0_328165076#1_0.qPKW.20" number="5" begin="1200" end="1800"/>
    <flow id="gneE32_0_48024760#1_2.qPKW.20" type="PASSENGER_MOD" departLane="best" route="gneE32_0_48024760#1_2.qPKW.20" number="2" begin="1200" end="1800"/>
    <flow id="-48024760#1_0_226151680#0_0.qPKW.30" type="PASSENGER_MOD" departLane="best" route="-48024760#1_0_226151680#0_0.qPKW.30" number="7" begin="1800" end="2400"/>
    <flow id="-48024760#1_1_226151680#0_1.qPKW.30" type="PASSENGER_MOD" departLane="best" route="-48024760#1_1_226151680#0_1.qPKW.30" number="5" begin="1800" end="2400"/>
    <flow id="-639397535_0_22733769_0.qPKW.30" type="PASSENGER_MOD" departLane="best" route="-639397535_0_22733769_0.qPKW.30" number="1" begin="1800" end="2400"/>
    <flow id="-639397535_1_-328042384_0.qPKW.30" type="PASSENGER_MOD" departLane="best" route="-639397535_1_-328042384_0.qPKW.30" number="4" begin="1800" end="2400"/>
    <flow id="137307547#0_0_22733769_0.qPKW.30" type="PASSENGER_MOD" departLane="best" route="137307547#0_0_22733769_0.qPKW.30" number="5" begin="1800" end="2400"/>
    <flow id="137307547#0_0_328165076#1_0.qPKW.30" type="PASSENGER_MOD" departLane="best" route="137307547#0_0_328165076#1_0.qPKW.30" number="2" begin="1800" end="2400"/>
    <flow id="137307547#0_1_48024760#1_2.qPKW.30" type="PASSENGER_MOD" departLane="best" route="137307547#0_1_48024760#1_2.qPKW.30" number="2" begin="1800" end="2400"/>
    <flow id="gneE32_0_48024760#1_2.qPKW.30" type="PASSENGER_MOD" departLane="best" route="gneE32_0_48024760#1_2.qPKW.30" number="1" begin="1800" end="2400"/>
    <flow id="-48024760#1_0_226151680#0_0.qPKW.40" type="PASSENGER_MOD" departLane="best" route="-48024760#1_0_226151680#0_0.qPKW.40" number="4" begin="2400" end="3000"/>
    <flow id="-48024760#1_1_226151680#0_1.qPKW.40" type="PASSENGER_MOD" departLane="best" route="-48024760#1_1_226151680#0_1.qPKW.40" number="4" begin="2400" end="3000"/>
    <flow id="-639397535_0_22733769_0.qPKW.40" type="PASSENGER_MOD" departLane="best" route="-639397535_0_22733769_0.qPKW.40" number="2" begin="2400" end="3000"/>
    <flow id="-639397535_1_-328042384_0.qPKW.40" type="PASSENGER_MOD" departLane="best" route="-639397535_1_-328042384_0.qPKW.40" number="7" begin="2400" end="3000"/>
    <flow id="137307547#0_0_22733769_0.qPKW.40" type="PASSENGER_MOD" departLane="best" route="137307547#0_0_22733769_0.qPKW.40" number="5" begin="2400" end="3000"/>
    <flow id="137307547#0_0_328165076#1_0.qPKW.40" type="PASSENGER_MOD" departLane="best" route="137307547#0_0_328165076#1_0.qPKW.40" number="4" begin="2400" end="3000"/>
    <flow id="137307547#0_1_48024760#1_2.qPKW.40" type="PASSENGER_MOD" departLane="best" route="137307547#0_1_48024760#1_2.qPKW.40" number="2" begin="2400" end="3000"/>
    <flow id="137307547#0_1_-328042384_0.qPKW.40" type="PASSENGER_MOD" departLane="best" route="137307547#0_1_-328042384_0.qPKW.40" number="1" begin="2400" end="3000"/>
    <flow id="gneE32_0_328165076#1_0.qPKW.40" type="PASSENGER_MOD" departLane="best" route="gneE32_0_328165076#1_0.qPKW.40" number="5" begin="2400" end="3000"/>
    <flow id="gneE32_0_48024760#1_2.qPKW.40" type="PASSENGER_MOD" departLane="best" route="gneE32_0_48024760#1_2.qPKW.40" number="2" begin="2400" end="3000"/>
    <flow id="-48024760#1_0_226151680#0_0.qPKW.50" type="PASSENGER_MOD" departLane="best" route="-48024760#1_0_226151680#0_0.qPKW.50" number="5" begin="3000" end="3600"/>
    <flow id="-48024760#1_1_226151680#0_1.qPKW.50" type="PASSENGER_MOD" departLane="best" route="-48024760#1_1_226151680#0_1.qPKW.50" number="1" begin="3000" end="3600"/>
    <flow id="-639397535_0_22733769_0.qPKW.50" type="PASSENGER_MOD" departLane="best" route="-639397535_0_22733769_0.qPKW.50" number="1" begin="3000" end="3600"/>
    <flow id="-639397535_1_-328042384_0.qPKW.50" type="PASSENGER_MOD" departLane="best" route="-639397535_1_-328042384_0.qPKW.50" number="5" begin="3000" end="3600"/>
    <flow id="137307547#0_0_48024760#1_1.qPKW.50" type="PASSENGER_MOD" departLane="best" route="137307547#0_0_48024760#1_1.qPKW.50" number="1" begin="3000" end="3600"/>
    <flow id="137307547#0_0_328165076#1_0.qPKW.50" type="PASSENGER_MOD" departLane="best" route="137307547#0_0_328165076#1_0.qPKW.50" number="2" begin="3000" end="3600"/>
    <flow id="137307547#0_1_48024760#1_2.qPKW.50" type="PASSENGER_MOD" departLane="best" route="137307547#0_1_48024760#1_2.qPKW.50" number="2" begin="3000" end="3600"/>
    <flow id="gneE32_0_48024760#1_2.qPKW.50" type="PASSENGER_MOD" departLane="best" route="gneE32_0_48024760#1_2.qPKW.50" number="1" begin="3000" end="3600"/>
    <flow id="-48024760#1_0_226151680#0_0.qPKW.60" type="PASSENGER_MOD" departLane="best" route="-48024760#1_0_226151680#0_0.qPKW.60" number="4" begin="3600" end="4200"/>
    <flow id="-48024760#1_1_226151680#0_1.qPKW.60" type="PASSENGER_MOD" departLane="best" route="-48024760#1_1_226151680#0_1.qPKW.60" number="4" begin="3600" end="4200"/>
    <flow id="-639397535_0_22733769_0.qPKW.60" type="PASSENGER_MOD" departLane="best" route="-639397535_0_22733769_0.qPKW.60" number="1" begin="3600" end="4200"/>
    <flow id="-639397535_1_-328042384_0.qPKW.60" type="PASSENGER_MOD" departLane="best" route="-639397535_1_-328042384_0.qPKW.60" number="2" begin="3600" end="4200"/>
    <flow id="137307547#0_0_22733769_0.qPKW.60" type="PASSENGER_MOD" departLane="best" route="137307547#0_0_22733769_0.qPKW.60" number="2" begin="3600" end="4200"/>
    <flow id="137307547#0_0_48024760#1_1.qPKW.60" type="PASSENGER_MOD" departLane="best" route="137307547#0_0_48024760#1_1.qPKW.60" number="1" begin="3600" end="4200"/>
    <flow id="137307547#0_0_328165076#1_0.qPKW.60" type="PASSENGER_MOD" departLane="best" route="137307547#0_0_328165076#1_0.qPKW.60" number="4" begin="3600" end="4200"/>
    <flow id="137307547#0_1_48024760#1_2.qPKW.60" type="PASSENGER_MOD" departLane="best" route="137307547#0_1_48024760#1_2.qPKW.60" number="4" begin="3600" end="4200"/>
    <flow id="137307547#0_1_-328042384_0.qPKW.60" type="PASSENGER_MOD" departLane="best" route="137307547#0_1_-328042384_0.qPKW.60" number="2" begin="3600" end="4200"/>
    <flow id="gneE32_0_226151680#0_0.qPKW.60" type="PASSENGER_MOD" departLane="best" route="gneE32_0_226151680#0_0.qPKW.60" number="2" begin="3600" end="4200"/>
    <flow id="gneE32_0_328165076#1_0.qPKW.60" type="PASSENGER_MOD" departLane="best" route="gneE32_0_328165076#1_0.qPKW.60" number="2" begin="3600" end="4200"/>
    <flow id="gneE32_0_48024760#1_2.qPKW.60" type="PASSENGER_MOD" departLane="best" route="gneE32_0_48024760#1_2.qPKW.60" number="2" begin="3600" end="4200"/>
    <flow id="-48024760#1_0_226151680#0_0.qPKW.70" type="PASSENGER_MOD" departLane="best" route="-48024760#1_0_226151680#0_0.qPKW.70" number="2" begin="4200" end="4800"/>
    <flow id="-48024760#1_1_226151680#0_1.qPKW.70" type="PASSENGER_MOD" departLane="best" route="-48024760#1_1_226151680#0_1.qPKW.70" number="2" begin="4200" end="4800"/>
    <flow id="-639397535_0_22733769_0.qPKW.70" type="PASSENGER_MOD" departLane="best" route="-639397535_0_22733769_0.qPKW.70" number="1" begin="4200" end="4800"/>
    <flow id="137307547#0_0_48024760#1_1.qPKW.70" type="PASSENGER_MOD" departLane="best" route="137307547#0_0_48024760#1_1.qPKW.70" number="2" begin="4200" end="4800"/>
    <flow id="137307547#0_0_328165076#1_0.qPKW.70" type="PASSENGER_MOD" departLane="best" route="137307547#0_0_328165076#1_0.qPKW.70" number="2" begin="4200" end="4800"/>
    <flow id="137307547#0_1_48024760#1_2.qPKW.70" type="PASSENGER_MOD" departLane="best" route="137307547#0_1_48024760#1_2.qPKW.70" number="3" begin="4200" end="4800"/>
    <flow id="gneE32_0_328165076#1_0.qPKW.70" type="PASSENGER_MOD" departLane="best" route="gneE32_0_328165076#1_0.qPKW.70" number="3" begin="4200" end="4800"/>
    <flow id="-48024760#1_0_226151680#0_0.qPKW.80" type="PASSENGER_MOD" departLane="best" route="-48024760#1_0_226151680#0_0.qPKW.80" number="1" begin="4800" end="5400"/>
    <flow id="-639397535_0_22733769_0.qPKW.80" type="PASSENGER_MOD" departLane="best" route="-639397535_0_22733769_0.qPKW.80" number="1" begin="4800" end="5400"/>
    <flow id="-639397535_1_-328042384_0.qPKW.80" type="PASSENGER_MOD" departLane="best" route="-639397535_1_-328042384_0.qPKW.80" number="6" begin="4800" end="5400"/>
    <flow id="137307547#0_0_328165076#1_0.qPKW.80" type="PASSENGER_MOD" departLane="best" route="137307547#0_0_328165076#1_0.qPKW.80" number="2" begin="4800" end="5400"/>
    <flow id="gneE32_0_226151680#0_0.qPKW.80" type="PASSENGER_MOD" departLane="best" route="gneE32_0_226151680#0_0.qPKW.80" number="3" begin="4800" end="5400"/>
    <flow id="gneE32_0_48024760#1_2.qPKW.80" type="PASSENGER_MOD" departLane="best" route="gneE32_0_48024760#1_2.qPKW.80" number="1" begin="4800" end="5400"/>
    <flow id="-48024760#1_0_226151680#0_0.qPKW.90" type="PASSENGER_MOD" departLane="best" route="-48024760#1_0_226151680#0_0.qPKW.90" number="2" begin="5400" end="6000"/>
    <flow id="-48024760#1_1_226151680#0_1.qPKW.90" type="PASSENGER_MOD" departLane="best" route="-48024760#1_1_226151680#0_1.qPKW.90" number="3" begin="5400" end="6000"/>
    <flow id="-639397535_0_22733769_0.qPKW.90" type="PASSENGER_MOD" departLane="best" route="-639397535_0_22733769_0.qPKW.90" number="1" begin="5400" end="6000"/>
    <flow id="-639397535_1_-328042384_0.qPKW.90" type="PASSENGER_MOD" departLane="best" route="-639397535_1_-328042384_0.qPKW.90" number="6" begin="5400" end="6000"/>
    <flow id="137307547#0_1_48024760#1_2.qPKW.90" type="PASSENGER_MOD" departLane="best" route="137307547#0_1_48024760#1_2.qPKW.90" number="1" begin="5400" end="6000"/>
    <flow id="gneE32_0_226151680#0_0.qPKW.90" type="PASSENGER_MOD" departLane="best" route="gneE32_0_226151680#0_0.qPKW.90" number="2" begin="5400" end="6000"/>
    <flow id="gneE32_0_328165076#1_0.qPKW.90" type="PASSENGER_MOD" departLane="best" route="gneE32_0_328165076#1_0.qPKW.90" number="4" begin="5400" end="6000"/>
    <flow id="gneE32_0_48024760#1_2.qPKW.90" type="PASSENGER_MOD" departLane="best" route="gneE32_0_48024760#1_2.qPKW.90" number="1" begin="5400" end="6000"/>
    <flow id="-48024760#1_0_226151680#0_0.qPKW.100" type="PASSENGER_MOD" departLane="best" route="-48024760#1_0_226151680#0_0.qPKW.100" number="3" begin="6000" end="6600"/>
    <flow id="-48024760#1_1_226151680#0_1.qPKW.100" type="PASSENGER_MOD" departLane="best" route="-48024760#1_1_226151680#0_1.qPKW.100" number="2" begin="6000" end="6600"/>
    <flow id="-639397535_1_-328042384_0.qPKW.100" type="PASSENGER_MOD" departLane="best" route="-639397535_1_-328042384_0.qPKW.100" number="3" begin="6000" end="6600"/>
    <flow id="137307547#0_0_22733769_0.qPKW.100" type="PASSENGER_MOD" departLane="best" route="137307547#0_0_22733769_0.qPKW.100" number="4" begin="6000" end="6600"/>
    <flow id="137307547#0_1_48024760#1_2.qPKW.100" type="PASSENGER_MOD" departLane="best" route="137307547#0_1_48024760#1_2.qPKW.100" number="2" begin="6000" end="6600"/>
    <flow id="gneE32_0_328165076#1_0.qPKW.100" type="PASSENGER_MOD" departLane="best" route="gneE32_0_328165076#1_0.qPKW.100" number="3" begin="6000" end="6600"/>
    <flow id="gneE32_0_48024760#1_2.qPKW.100" type="PASSENGER_MOD" departLane="best" route="gneE32_0_48024760#1_2.qPKW.100" number="2" begin="6000" end="6600"/>
    <flow id="-48024760#1_0_226151680#0_0.qPKW.110" type="PASSENGER_MOD" departLane="best" route="-48024760#1_0_226151680#0_0.qPKW.110" number="4" begin="6600" end="7200"/>
    <flow id="-48024760#1_1_226151680#0_1.qPKW.110" type="PASSENGER_MOD" departLane="best" route="-48024760#1_1_226151680#0_1.qPKW.110" number="1" begin="6600" end="7200"/>
    <flow id="-639397535_0_22733769_0.qPKW.110" type="PASSENGER_MOD" departLane="best" route="-639397535_0_22733769_0.qPKW.110" number="1" begin="6600" end="7200"/>
    <flow id="-639397535_1_-328042384_0.qPKW.110" type="PASSENGER_MOD" departLane="best" route="-639397535_1_-328042384_0.qPKW.110" number="2" begin="6600" end="7200"/>
    <flow id="137307547#0_0_22733769_0.qPKW.110" type="PASSENGER_MOD" departLane="best" route="137307547#0_0_22733769_0.qPKW.110" number="2" begin="6600" end="7200"/>
    <flow id="137307547#0_0_328165076#1_0.qPKW.110" type="PASSENGER_MOD" departLane="best" route="137307547#0_0_328165076#1_0.qPKW.110" number="1" begin="6600" end="7200"/>
    <flow id="137307547#0_1_48024760#1_2.qPKW.110" type="PASSENGER_MOD" departLane="best" route="137307547#0_1_48024760#1_2.qPKW.110" number="2" begin="6600" end="7200"/>
    <flow id="137307547#0_1_-328042384_0.qPKW.110" type="PASSENGER_MOD" departLane="best" route="137307547#0_1_-328042384_0.qPKW.110" number="1" begin="6600" end="7200"/>
    <flow id="gneE32_0_226151680#0_0.qPKW.110" type="PASSENGER_MOD" departLane="best" route="gneE32_0_226151680#0_0.qPKW.110" number="2" begin="6600" end="7200"/>
    <flow id="gneE32_0_48024760#1_2.qPKW.110" type="PASSENGER_MOD" departLane="best" route="gneE32_0_48024760#1_2.qPKW.110" number="3" begin="6600" end="7200"/>
    <flow id="-48024760#1_0_226151680#0_0.qPKW.120" type="PASSENGER_MOD" departLane="best" route="-48024760#1_0_226151680#0_0.qPKW.120" number="6" begin="7200" end="7800"/>
    <flow id="-48024760#1_1_226151680#0_1.qPKW.120" type="PASSENGER_MOD" departLane="best" route="-48024760#1_1_226151680#0_1.qPKW.120" number="1" begin="7200" end="7800"/>
    <flow id="-639397535_0_22733769_0.qPKW.120" type="PASSENGER_MOD" departLane="best" route="-639397535_0_22733769_0.qPKW.120" number="1" begin="7200" end="7800"/>
    <flow id="-639397535_1_-328042384_0.qPKW.120" type="PASSENGER_MOD" departLane="best" route="-639397535_1_-328042384_0.qPKW.120" number="1" begin="7200" end="7800"/>
    <flow id="137307547#0_0_22733769_0.qPKW.120" type="PASSENGER_MOD" departLane="best" route="137307547#0_0_22733769_0.qPKW.120" number="2" begin="7200" end="7800"/>
    <flow id="137307547#0_0_328165076#1_0.qPKW.120" type="PASSENGER_MOD" departLane="best" route="137307547#0_0_328165076#1_0.qPKW.120" number="1" begin="7200" end="7800"/>
    <flow id="137307547#0_1_48024760#1_2.qPKW.120" type="PASSENGER_MOD" departLane="best" route="137307547#0_1_48024760#1_2.qPKW.120" number="4" begin="7200" end="7800"/>
    <flow id="gneE32_0_48024760#1_2.qPKW.120" type="PASSENGER_MOD" departLane="best" route="gneE32_0_48024760#1_2.qPKW.120" number="1" begin="7200" end="7800"/>
    <flow id="-639397535_1_-328042384_0.qPKW.130" type="PASSENGER_MOD" departLane="best" route="-639397535_1_-328042384_0.qPKW.130" number="2" begin="7800" end="8400"/>
    <flow id="137307547#0_0_22733769_0.qPKW.130" type="PASSENGER_MOD" departLane="best" route="137307547#0_0_22733769_0.qPKW.130" number="2" begin="7800" end="8400"/>
    <flow id="137307547#0_1_48024760#1_2.qPKW.130" type="PASSENGER_MOD" departLane="best" route="137307547#0_1_48024760#1_2.qPKW.130" number="1" begin="7800" end="8400"/>
    <flow id="gneE32_0_328165076#1_0.qPKW.130" type="PASSENGER_MOD" departLane="best" route="gneE32_0_328165076#1_0.qPKW.130" number="2" begin="7800" end="8400"/>
    <flow id="gneE32_0_48024760#1_2.qPKW.130" type="PASSENGER_MOD" departLane="best" route="gneE32_0_48024760#1_2.qPKW.130" number="1" begin="7800" end="8400"/>
    <flow id="-48024760#1_0_226151680#0_0.qPKW.140" type="PASSENGER_MOD" departLane="best" route="-48024760#1_0_226151680#0_0.qPKW.140" number="1" begin="8400" end="9000"/>
    <flow id="-639397535_0_22733769_0.qPKW.140" type="PASSENGER_MOD" departLane="best" route="-639397535_0_22733769_0.qPKW.140" number="1" begin="8400" end="9000"/>
    <flow id="-639397535_1_-328042384_0.qPKW.140" type="PASSENGER_MOD" departLane="best" route="-639397535_1_-328042384_0.qPKW.140" number="5" begin="8400" end="9000"/>
    <flow id="137307547#0_0_22733769_0.qPKW.140" type="PASSENGER_MOD" departLane="best" route="137307547#0_0_22733769_0.qPKW.140" number="1" begin="8400" end="9000"/>
    <flow id="137307547#0_0_48024760#1_1.qPKW.140" type="PASSENGER_MOD" departLane="best" route="137307547#0_0_48024760#1_1.qPKW.140" number="1" begin="8400" end="9000"/>
    <flow id="137307547#0_0_328165076#1_0.qPKW.140" type="PASSENGER_MOD" departLane="best" route="137307547#0_0_328165076#1_0.qPKW.140" number="2" begin="8400" end="9000"/>
    <flow id="137307547#0_1_48024760#1_2.qPKW.140" type="PASSENGER_MOD" departLane="best" route="137307547#0_1_48024760#1_2.qPKW.140" number="3" begin="8400" end="9000"/>
    <flow id="gneE32_0_226151680#0_0.qPKW.140" type="PASSENGER_MOD" departLane="best" route="gneE32_0_226151680#0_0.qPKW.140" number="2" begin="8400" end="9000"/>
    <flow id="gneE32_0_328165076#1_0.qPKW.140" type="PASSENGER_MOD" departLane="best" route="gneE32_0_328165076#1_0.qPKW.140" number="1" begin="8400" end="9000"/>
    <flow id="gneE32_0_48024760#1_2.qPKW.140" type="PASSENGER_MOD" departLane="best" route="gneE32_0_48024760#1_2.qPKW.140" number="1" begin="8400" end="9000"/>
    <flow id="-48024760#1_0_226151680#0_0.qPKW.150" type="PASSENGER_MOD" departLane="best" route="-48024760#1_0_226151680#0_0.qPKW.150" number="1" begin="9000" end="9600"/>
    <flow id="-48024760#1_1_226151680#0_1.qPKW.150" type="PASSENGER_MOD" departLane="best" route="-48024760#1_1_226151680#0_1.qPKW.150" number="1" begin="9000" end="9600"/>
    <flow id="-639397535_1_-328042384_0.qPKW.150" type="PASSENGER_MOD" departLane="best" route="-639397535_1_-328042384_0.qPKW.150" number="3" begin="9000" end="9600"/>
    <flow id="137307547#0_1_48024760#1_2.qPKW.150" type="PASSENGER_MOD" departLane="best" route="137307547#0_1_48024760#1_2.qPKW.150" number="1" begin="9000" end="9600"/>
    <flow id="-48024760#1_1_226151680#0_1.qPKW.160" type="PASSENGER_MOD" departLane="best" route="-48024760#1_1_226151680#0_1.qPKW.160" number="4" begin="9600" end="10200"/>
    <flow id="-639397535_0_22733769_0.qPKW.160" type="PASSENGER_MOD" departLane="best" route="-639397535_0_22733769_0.qPKW.160" number="1" begin="9600" end="10200"/>
    <flow id="-639397535_1_-328042384_0.qPKW.160" type="PASSENGER_MOD" departLane="best" route="-639397535_1_-328042384_0.qPKW.160" number="1" begin="9600" end="10200"/>
    <flow id="137307547#0_0_22733769_0.qPKW.160" type="PASSENGER_MOD" departLane="best" route="137307547#0_0_22733769_0.qPKW.160" number="5" begin="9600" end="10200"/>
    <flow id="137307547#0_0_328165076#1_0.qPKW.160" type="PASSENGER_MOD" departLane="best" route="137307547#0_0_328165076#1_0.qPKW.160" number="1" begin="9600" end="10200"/>
    <flow id="137307547#0_1_48024760#1_2.qPKW.160" type="PASSENGER_MOD" departLane="best" route="137307547#0_1_48024760#1_2.qPKW.160" number="2" begin="9600" end="10200"/>
    <flow id="137307547#0_1_-328042384_0.qPKW.160" type="PASSENGER_MOD" departLane="best" route="137307547#0_1_-328042384_0.qPKW.160" number="1" begin="9600" end="10200"/>
    <flow id="gneE32_0_328165076#1_0.qPKW.160" type="PASSENGER_MOD" departLane="best" route="gneE32_0_328165076#1_0.qPKW.160" number="2" begin="9600" end="10200"/>
    <flow id="gneE32_0_48024760#1_2.qPKW.160" type="PASSENGER_MOD" departLane="best" route="gneE32_0_48024760#1_2.qPKW.160" number="1" begin="9600" end="10200"/>
    <flow id="-48024760#1_1_226151680#0_1.qPKW.170" type="PASSENGER_MOD" departLane="best" route="-48024760#1_1_226151680#0_1.qPKW.170" number="4" begin="10200" end="10800"/>
    <flow id="-639397535_1_-328042384_0.qPKW.170" type="PASSENGER_MOD" departLane="best" route="-639397535_1_-328042384_0.qPKW.170" number="2" begin="10200" end="10800"/>
    <flow id="137307547#0_0_22733769_0.qPKW.170" type="PASSENGER_MOD" departLane="best" route="137307547#0_0_22733769_0.qPKW.170" number="2" begin="10200" end="10800"/>
    <flow id="137307547#0_1_48024760#1_2.qPKW.170" type="PASSENGER_MOD" departLane="best" route="137307547#0_1_48024760#1_2.qPKW.170" number="1" begin="10200" end="10800"/>
    <flow id="gneE32_0_328165076#1_0.qPKW.170" type="PASSENGER_MOD" departLane="best" route="gneE32_0_328165076#1_0.qPKW.170" number="1" begin="10200" end="10800"/>
    <flow id="-48024760#1_0_226151680#0_0.qPKW.180" type="PASSENGER_MOD" departLane="best" route="-48024760#1_0_226151680#0_0.qPKW.180" number="4" begin="10800" end="11400"/>
    <flow id="-48024760#1_1_226151680#0_1.qPKW.180" type="PASSENGER_MOD" departLane="best" route="-48024760#1_1_226151680#0_1.qPKW.180" number="1" begin="10800" end="11400"/>
    <flow id="-639397535_1_-328042384_0.qPKW.180" type="PASSENGER_MOD" departLane="best" route="-639397535_1_-328042384_0.qPKW.180" number="2" begin="10800" end="11400"/>
    <flow id="137307547#0_0_22733769_0.qPKW.180" type="PASSENGER_MOD" departLane="best" route="137307547#0_0_22733769_0.qPKW.180" number="5" begin="10800" end="11400"/>
    <flow id="gneE32_0_328165076#1_0.qPKW.180" type="PASSENGER_MOD" departLane="best" route="gneE32_0_328165076#1_0.qPKW.180" number="1" begin="10800" end="11400"/>
    <flow id="-48024760#1_0_226151680#0_0.qPKW.190" type="PASSENGER_MOD" departLane="best" route="-48024760#1_0_226151680#0_0.qPKW.190" number="2" begin="11400" end="12000"/>
    <flow id="-48024760#1_1_226151680#0_1.qPKW.190" type="PASSENGER_MOD" departLane="best" route="-48024760#1_1_226151680#0_1.qPKW.190" number="3" begin="11400" end="12000"/>
    <flow id="-639397535_0_22733769_0.qPKW.190" type="PASSENGER_MOD" departLane="best" route="-639397535_0_22733769_0.qPKW.190" number="1" begin="11400" end="12000"/>
    <flow id="-639397535_1_-328042384_0.qPKW.190" type="PASSENGER_MOD" departLane="best" route="-639397535_1_-328042384_0.qPKW.190" number="2" begin="11400" end="12000"/>
    <flow id="137307547#0_0_22733769_0.qPKW.190" type="PASSENGER_MOD" departLane="best" route="137307547#0_0_22733769_0.qPKW.190" number="5" begin="11400" end="12000"/>
    <flow id="137307547#0_0_328165076#1_0.qPKW.190" type="PASSENGER_MOD" departLane="best" route="137307547#0_0_328165076#1_0.qPKW.190" number="1" begin="11400" end="12000"/>
    <flow id="137307547#0_1_48024760#1_2.qPKW.190" type="PASSENGER_MOD" departLane="best" route="137307547#0_1_48024760#1_2.qPKW.190" number="3" begin="11400" end="12000"/>
    <flow id="137307547#0_1_-328042384_0.qPKW.190" type="PASSENGER_MOD" departLane="best" route="137307547#0_1_-328042384_0.qPKW.190" number="1" begin="11400" end="12000"/>
    <flow id="gneE32_0_328165076#1_0.qPKW.190" type="PASSENGER_MOD" departLane="best" route="gneE32_0_328165076#1_0.qPKW.190" number="2" begin="11400" end="12000"/>
    <flow id="gneE32_0_48024760#1_2.qPKW.190" type="PASSENGER_MOD" departLane="best" route="gneE32_0_48024760#1_2.qPKW.190" number="1" begin="11400" end="12000"/>
    <flow id="-48024760#1_0_226151680#0_0.qPKW.200" type="PASSENGER_MOD" departLane="best" route="-48024760#1_0_226151680#0_0.qPKW.200" number="1" begin="12000" end="12600"/>
    <flow id="-48024760#1_1_226151680#0_1.qPKW.200" type="PASSENGER_MOD" departLane="best" route="-48024760#1_1_226151680#0_1.qPKW.200" number="1" begin="12000" end="12600"/>
    <flow id="-639397535_1_-328042384_0.qPKW.200" type="PASSENGER_MOD" departLane="best" route="-639397535_1_-328042384_0.qPKW.200" number="3" begin="12000" end="12600"/>
    <flow id="137307547#0_0_22733769_0.qPKW.200" type="PASSENGER_MOD" departLane="best" route="137307547#0_0_22733769_0.qPKW.200" number="3" begin="12000" end="12600"/>
    <flow id="137307547#0_1_48024760#1_2.qPKW.200" type="PASSENGER_MOD" departLane="best" route="137307547#0_1_48024760#1_2.qPKW.200" number="1" begin="12000" end="12600"/>
    <flow id="gneE32_0_328165076#1_0.qPKW.200" type="PASSENGER_MOD" departLane="best" route="gneE32_0_328165076#1_0.qPKW.200" number="3" begin="12000" end="12600"/>
    <flow id="gneE32_0_48024760#1_2.qPKW.200" type="PASSENGER_MOD" departLane="best" route="gneE32_0_48024760#1_2.qPKW.200" number="1" begin="12000" end="12600"/>
    <flow id="-48024760#1_0_226151680#0_0.qPKW.210" type="PASSENGER_MOD" departLane="best" route="-48024760#1_0_226151680#0_0.qPKW.210" number="2" begin="12600" end="13200"/>
    <flow id="-48024760#1_1_226151680#0_1.qPKW.210" type="PASSENGER_MOD" departLane="best" route="-48024760#1_1_226151680#0_1.qPKW.210" number="2" begin="12600" end="13200"/>
    <flow id="-639397535_0_22733769_0.qPKW.210" type="PASSENGER_MOD" departLane="best" route="-639397535_0_22733769_0.qPKW.210" number="1" begin="12600" end="13200"/>
    <flow id="-639397535_1_-328042384_0.qPKW.210" type="PASSENGER_MOD" departLane="best" route="-639397535_1_-328042384_0.qPKW.210" number="3" begin="12600" end="13200"/>
    <flow id="137307547#0_0_328165076#1_0.qPKW.210" type="PASSENGER_MOD" departLane="best" route="137307547#0_0_328165076#1_0.qPKW.210" number="4" begin="12600" end="13200"/>
    <flow id="137307547#0_1_48024760#1_2.qPKW.210" type="PASSENGER_MOD" departLane="best" route="137307547#0_1_48024760#1_2.qPKW.210" number="1" begin="12600" end="13200"/>
    <flow id="137307547#0_1_-328042384_0.qPKW.210" type="PASSENGER_MOD" departLane="best" route="137307547#0_1_-328042384_0.qPKW.210" number="1" begin="12600" end="13200"/>
    <flow id="gneE32_0_226151680#0_0.qPKW.210" type="PASSENGER_MOD" departLane="best" route="gneE32_0_226151680#0_0.qPKW.210" number="2" begin="12600" end="13200"/>
    <flow id="gneE32_0_48024760#1_2.qPKW.210" type="PASSENGER_MOD" departLane="best" route="gneE32_0_48024760#1_2.qPKW.210" number="2" begin="12600" end="13200"/>
    <flow id="-48024760#1_0_226151680#0_0.qPKW.220" type="PASSENGER_MOD" departLane="best" route="-48024760#1_0_226151680#0_0.qPKW.220" number="1" begin="13200" end="13800"/>
    <flow id="-48024760#1_1_226151680#0_1.qPKW.220" type="PASSENGER_MOD" departLane="best" route="-48024760#1_1_226151680#0_1.qPKW.220" number="2" begin="13200" end="13800"/>
    <flow id="-639397535_0_22733769_0.qPKW.220" type="PASSENGER_MOD" departLane="best" route="-639397535_0_22733769_0.qPKW.220" number="1" begin="13200" end="13800"/>
    <flow id="-639397535_1_-328042384_0.qPKW.220" type="PASSENGER_MOD" departLane="best" route="-639397535_1_-328042384_0.qPKW.220" number="7" begin="13200" end="13800"/>
    <flow id="137307547#0_0_48024760#1_1.qPKW.220" type="PASSENGER_MOD" departLane="best" route="137307547#0_0_48024760#1_1.qPKW.220" number="8" begin="13200" end="13800"/>