<?xml version="1.0" encoding="UTF-8"?>

<!-- generated on Sun 17 Nov 2019 01:10:03 CET by Eclipse SUMO netedit Version 1.2.0
<configuration xmlns:xsi="http://www.w3.org/2001/XMLSchema-instance" xsi:noNamespaceSchemaLocation="http://sumo.dlr.de/xsd/netconvertConfiguration.xsd">

    <input>
        <sumo-net-file value="network.net.xml"/>
    </input>

    <output>
        <output-file value="network.net.xml"/>
        <output.street-names value="true"/>
    </output>

    <processing>
        <geometry.max-grade.fix value="false"/>
        <offset.disable-normalization value="true"/>
        <lefthand value="false"/>
    </processing>

    <junctions>
        <no-turnarounds value="true"/>
        <junctions.corner-detail value="5"/>
        <junctions.limit-turn-speed value="5.5"/>
        <rectangular-lane-cut value="false"/>
    </junctions>

    <pedestrian>
        <walkingareas value="false"/>
    </pedestrian>

    <netedit>
        <additional-files value="/home/obrusvit/Tools/sumo-workspace/brno_porici/det_e2_gen.xml"/>
    </netedit>

</configuration>
-->

<net version="1.1" junctionCornerDetail="5" limitTurnSpeed="5.50" xmlns:xsi="http://www.w3.org/2001/XMLSchema-instance" xsi:noNamespaceSchemaLocation="http://sumo.dlr.de/xsd/net_file.xsd">

    <location netOffset="-614646.22,-5448589.73" convBoundary="609.07,422.43,2192.85,966.85" origBoundary="16.566560,49.144521,16.629164,49.199046" projParameter="+proj=utm +zone=33 +ellps=WGS84 +datum=WGS84 +units=m +no_defs"/>

    <type id="highway.bridleway" priority="1" numLanes="1" speed="2.78" allow="pedestrian" oneway="1" width="2.00"/>
    <type id="highway.bus_guideway" priority="1" numLanes="1" speed="27.78" allow="bus" oneway="1"/>
    <type id="highway.cycleway" priority="1" numLanes="1" speed="8.33" allow="bicycle" oneway="0" width="1.00"/>
    <type id="highway.footway" priority="1" numLanes="1" speed="2.78" allow="pedestrian" oneway="1" width="2.00"/>
    <type id="highway.ford" priority="1" numLanes="1" speed="2.78" allow="army" oneway="0"/>
    <type id="highway.living_street" priority="3" numLanes="1" speed="2.78" disallow="tram rail_urban rail rail_electric ship" oneway="0"/>
    <type id="highway.motorway" priority="13" numLanes="2" speed="44.44" allow="private emergency authority army vip passenger hov taxi bus coach delivery truck trailer motorcycle evehicle custom1 custom2" oneway="1"/>
    <type id="highway.motorway_link" priority="12" numLanes="1" speed="22.22" allow="private emergency authority army vip passenger hov taxi bus coach delivery truck trailer motorcycle evehicle custom1 custom2" oneway="1"/>
    <type id="highway.path" priority="1" numLanes="1" speed="2.78" allow="bicycle pedestrian" oneway="1" width="2.00"/>
    <type id="highway.pedestrian" priority="1" numLanes="1" speed="2.78" allow="pedestrian" oneway="1" width="2.00"/>
    <type id="highway.primary" priority="9" numLanes="2" speed="27.78" disallow="tram rail_urban rail rail_electric ship" oneway="0"/>
    <type id="highway.primary_link" priority="8" numLanes="1" speed="22.22" disallow="tram rail_urban rail rail_electric ship" oneway="0"/>
    <type id="highway.primary|railway.rail" priority="15" numLanes="2" speed="83.33" disallow="tram rail_urban ship" oneway="0"/>
    <type id="highway.raceway" priority="14" numLanes="2" speed="83.33" allow="vip" oneway="0"/>
    <type id="highway.residential" priority="4" numLanes="1" speed="13.89" disallow="tram rail_urban rail rail_electric ship" oneway="0"/>
    <type id="highway.secondary" priority="7" numLanes="2" speed="27.78" disallow="tram rail_urban rail rail_electric ship" oneway="0"/>
    <type id="highway.secondary_link" priority="6" numLanes="1" speed="22.22" disallow="tram rail_urban rail rail_electric ship" oneway="0"/>
    <type id="highway.service" priority="2" numLanes="1" speed="5.56" allow="delivery bicycle pedestrian" oneway="0"/>
    <type id="highway.stairs" priority="1" numLanes="1" speed="1.39" allow="pedestrian" oneway="1" width="2.00"/>
    <type id="highway.step" priority="1" numLanes="1" speed="1.39" allow="pedestrian" oneway="1" width="2.00"/>
    <type id="highway.steps" priority="1" numLanes="1" speed="1.39" allow="pedestrian" oneway="1" width="2.00"/>
    <type id="highway.tertiary" priority="6" numLanes="1" speed="22.22" disallow="tram rail_urban rail rail_electric ship" oneway="0"/>
    <type id="highway.tertiary_link" priority="5" numLanes="1" speed="22.22" disallow="tram rail_urban rail rail_electric ship" oneway="0"/>
    <type id="highway.track" priority="1" numLanes="1" speed="5.56" disallow="tram rail_urban rail rail_electric ship" oneway="0"/>
    <type id="highway.trunk" priority="11" numLanes="2" speed="27.78" disallow="tram rail_urban rail rail_electric bicycle pedestrian ship" oneway="0"/>
    <type id="highway.trunk_link" priority="10" numLanes="1" speed="22.22" disallow="tram rail_urban rail rail_electric bicycle pedestrian ship" oneway="0"/>
    <type id="highway.unclassified" priority="5" numLanes="1" speed="13.89" disallow="tram rail_urban rail rail_electric ship" oneway="0"/>
    <type id="highway.unsurfaced" priority="1" numLanes="1" speed="8.33" disallow="tram rail_urban rail rail_electric ship" oneway="0"/>
    <type id="railway.light_rail" priority="15" numLanes="1" speed="27.78" allow="rail_urban" oneway="1"/>
    <type id="railway.preserved" priority="15" numLanes="1" speed="27.78" allow="rail" oneway="1"/>
    <type id="railway.rail" priority="15" numLanes="1" speed="83.33" allow="rail rail_electric" oneway="1"/>
    <type id="railway.subway" priority="15" numLanes="1" speed="27.78" allow="rail_urban" oneway="1"/>
    <type id="railway.tram" priority="15" numLanes="1" speed="13.89" allow="tram" oneway="1"/>

    <edge id=":1205631973_0" function="internal">
        <lane id=":1205631973_0_0" index="0" disallow="tram rail_urban rail rail_electric pedestrian ship" speed="11.42" length="8.02" shape="1540.34,859.43 1538.85,857.55 1537.80,856.18 1536.53,855.19 1534.37,854.44"/>
    </edge>
    <edge id=":1205631973_1" function="internal">
        <lane id=":1205631973_1_0" index="0" disallow="tram rail_urban rail rail_electric pedestrian ship" speed="15.28" length="8.07" shape="1542.33,855.99 1534.37,854.44"/>
        <lane id=":1205631973_1_1" index="1" disallow="tram rail_urban rail rail_electric pedestrian ship" speed="15.28" length="8.07" shape="1542.99,852.85 1535.10,851.33"/>
    </edge>
    <edge id=":164990756_0" function="internal">
        <lane id=":164990756_0_0" index="0" disallow="tram rail_urban rail rail_electric pedestrian ship" speed="13.89" length="1.00" shape="1598.09,770.63 1598.04,771.00 1598.00,771.26 1597.94,771.52 1597.86,771.89"/>
        <lane id=":164990756_0_1" index="1" disallow="tram rail_urban rail rail_electric pedestrian ship" speed="13.89" length="1.00" shape="1594.92,770.19 1594.88,770.48 1594.85,770.68 1594.81,770.88 1594.74,771.17"/>
        <lane id=":164990756_0_2" index="2" allow="emergency bus tram rail_electric" speed="13.89" length="1.00" shape="1591.75,769.75 1591.72,769.96 1591.70,770.10 1591.67,770.24 1591.62,770.45"/>
    </edge>
    <edge id=":164990756_3" function="internal">
        <lane id=":164990756_3_0" index="0" disallow="tram rail_urban rail rail_electric pedestrian ship" speed="13.89" length="0.29" shape="1585.39,769.01 1585.40,768.97 1585.40,768.94 1585.41,768.91 1585.41,768.87"/>
        <lane id=":164990756_3_1" index="1" allow="emergency bus tram rail_electric" speed="13.89" length="0.29" shape="1588.51,769.73 1588.54,769.60 1588.55,769.52 1588.57,769.43 1588.58,769.31"/>
    </edge>
    <edge id=":21416306_0" function="internal">
        <lane id=":21416306_0_0" index="0" disallow="tram rail_urban rail rail_electric pedestrian ship" speed="13.89" length="8.52" shape="1535.25,935.20 1533.46,936.97 1532.33,938.29 1531.43,939.78 1530.31,942.04"/>
    </edge>
    <edge id=":21416306_1" function="internal">
        <lane id=":21416306_1_0" index="0" allow="emergency bus tram rail_electric" speed="13.89" length="8.99" shape="1531.52,932.66 1527.43,940.66"/>
    </edge>
    <edge id=":21416306_2" function="internal">
        <lane id=":21416306_2_0" index="0" allow="emergency bus tram rail_electric" speed="13.89" length="9.06" shape="1524.54,939.28 1528.67,931.21"/>
    </edge>
    <edge id=":2301863409_0" function="internal">
        <lane id=":2301863409_0_0" index="0" disallow="tram rail_urban rail rail_electric pedestrian ship" speed="15.28" length="9.31" shape="1665.70,856.42 1663.16,857.39 1661.59,858.42 1660.13,859.69 1657.94,861.40"/>
    </edge>
    <edge id=":2301863409_1" function="internal">
        <lane id=":2301863409_1_0" index="0" disallow="tram rail_urban rail rail_electric pedestrian ship" speed="16.67" length="9.89" shape="1664.78,853.35 1661.90,854.21 1659.92,854.73 1657.91,855.15 1654.96,855.72"/>
        <lane id=":2301863409_1_1" index="1" disallow="tram rail_urban rail rail_electric pedestrian ship" speed="16.67" length="9.89" shape="1663.85,850.29 1661.07,851.12 1659.15,851.62 1657.21,852.03 1654.37,852.57"/>
        <lane id=":2301863409_1_2" index="2" disallow="tram rail_urban rail rail_electric pedestrian ship" speed="16.67" length="9.89" shape="1663.85,850.29 1660.93,850.64 1658.86,850.05 1656.76,849.37 1653.77,849.43"/>
        <lane id=":2301863409_1_3" index="3" disallow="tram rail_urban rail rail_electric pedestrian ship" speed="16.67" length="9.89" shape="1662.92,847.23 1660.24,848.02 1658.39,848.51 1656.52,848.91 1653.77,849.43"/>
    </edge>
    <edge id=":2301863409_5" function="internal">
        <lane id=":2301863409_5_0" index="0" disallow="tram rail_urban rail rail_electric pedestrian ship" speed="16.67" length="8.91" shape="1652.57,843.11 1655.12,842.64 1656.86,842.29 1658.58,841.84 1661.07,841.10"/>
        <lane id=":2301863409_5_1" index="1" disallow="tram rail_urban rail rail_electric pedestrian ship" speed="16.67" length="8.91" shape="1653.17,846.26 1655.82,845.77 1657.62,845.40 1659.41,844.93 1661.99,844.17"/>
    </edge>
    <edge id=":2325323717_0" function="internal">
        <lane id=":2325323717_0_0" index="0" disallow="tram rail_urban rail rail_electric pedestrian ship" speed="13.89" length="10.71" shape="1567.45,906.71 1564.71,908.05 1562.94,909.43 1561.32,911.07 1559.06,913.20"/>
    </edge>
    <edge id=":2325323717_1" function="internal">
        <lane id=":2325323717_1_0" index="0" disallow="tram rail_urban rail rail_electric pedestrian ship" speed="11.95" length="9.31" shape="1562.23,904.78 1561.79,907.53 1561.54,909.53 1560.85,911.26 1559.06,913.20"/>
    </edge>
    <edge id=":25310538_0" function="internal">
        <lane id=":25310538_0_0" index="0" disallow="tram rail_urban rail rail_electric ship" speed="16.67" length="3.12" shape="1053.12,679.66 1050.41,678.04"/>
        <lane id=":25310538_0_1" index="1" disallow="tram rail_urban rail rail_electric ship" speed="16.67" length="3.12" shape="1054.70,676.88 1052.07,675.31"/>
    </edge>
    <edge id=":25310538_2" function="internal">
        <lane id=":25310538_2_0" index="0" disallow="tram rail_urban rail rail_electric pedestrian ship" speed="16.67" length="2.82" shape="1057.03,667.13 1059.43,668.52"/>
        <lane id=":25310538_2_1" index="1" disallow="tram rail_urban rail rail_electric pedestrian ship" speed="16.67" length="2.82" shape="1055.37,669.87 1057.85,671.31"/>
    </edge>
    <edge id=":25310540_0" function="internal">
        <lane id=":25310540_0_0" index="0" disallow="tram rail_urban rail rail_electric pedestrian ship" speed="16.67" length="0.41" shape="1385.88,823.43 1385.44,823.33"/>
        <lane id=":25310540_0_1" index="1" disallow="tram rail_urban rail rail_electric pedestrian ship" speed="16.67" length="0.41" shape="1386.51,820.29 1386.15,820.21"/>
    </edge>
    <edge id=":25310540_2" function="internal">
        <lane id=":25310540_2_0" index="0" speed="15.28" length="1.17" shape="1388.29,810.85 1388.39,810.88"/>
        <lane id=":25310540_2_1" index="1" speed="15.28" length="1.17" shape="1387.58,813.97 1387.76,814.01"/>
        <lane id=":25310540_2_2" index="2" speed="15.28" length="1.17" shape="1387.58,813.97 1387.13,817.15"/>
    </edge>
    <edge id=":2_06_0" function="internal">
        <lane id=":2_06_0_0" index="0" allow="emergency bus tram rail_electric" speed="14.20" length="30.50" shape="1585.77,861.66 1577.77,862.50 1570.97,865.23 1565.37,869.86 1560.97,876.37"/>
    </edge>
    <edge id=":2_06_1" function="internal">
        <lane id=":2_06_1_0" index="0" disallow="tram rail_urban rail rail_electric pedestrian ship" speed="15.28" length="38.97" shape="1585.77,861.66 1574.73,861.13 1564.35,859.99 1554.94,858.51 1546.84,856.93"/>
        <lane id=":2_06_1_1" index="1" disallow="tram rail_urban rail rail_electric pedestrian ship" speed="15.28" length="38.97" shape="1585.81,858.46 1574.87,857.94 1564.70,856.83 1555.50,855.36 1547.49,853.80"/>
    </edge>
    <edge id=":2_06_3" function="internal">
        <lane id=":2_06_3_0" index="0" allow="emergency bus tram rail_electric" speed="9.61" length="24.35" shape="1585.97,855.26 1578.65,854.26 1573.90,851.47 1571.73,846.89 1572.12,840.52"/>
    </edge>
    <edge id=":2_06_4" function="internal">
        <lane id=":2_06_4_0" index="0" disallow="tram rail_urban rail rail_electric pedestrian ship" speed="6.12" length="9.07" shape="1581.49,842.60 1581.28,845.15 1581.98,846.98 1583.60,848.12 1586.14,848.54"/>
    </edge>
    <edge id=":2_06_5" function="internal">
        <lane id=":2_06_5_0" index="0" disallow="tram rail_urban rail rail_electric pedestrian ship" speed="13.89" length="26.63" shape="1578.37,841.91 1570.56,867.37"/>
    </edge>
    <edge id=":2_06_6" function="internal">
        <lane id=":2_06_6_0" index="0" allow="emergency bus tram rail_electric" speed="13.89" length="38.04" shape="1575.25,841.21 1571.91,852.25 1567.69,862.60 1563.68,871.06 1560.97,876.37"/>
    </edge>
    <edge id=":2_06_7" function="internal">
        <lane id=":2_06_7_0" index="0" disallow="tram rail_urban rail rail_electric pedestrian ship" speed="9.86" length="21.99" shape="1549.56,844.32 1557.33,845.51 1563.16,845.16 1567.05,843.27 1569.00,839.82"/>
    </edge>
    <edge id=":2_06_8" function="internal">
        <lane id=":2_06_8_0" index="0" disallow="tram rail_urban rail rail_electric pedestrian ship" speed="15.28" length="37.20" shape="1549.56,844.32 1560.04,846.33 1569.59,847.57 1578.26,848.24 1586.14,848.54"/>
        <lane id=":2_06_8_1" index="1" disallow="tram rail_urban rail rail_electric pedestrian ship" speed="15.28" length="37.20" shape="1548.85,847.44 1559.44,849.46 1569.20,850.73 1578.09,851.43 1586.06,851.74"/>
    </edge>
    <edge id=":2_06_10" function="internal">
        <lane id=":2_06_10_0" index="0" disallow="tram rail_urban rail rail_electric pedestrian ship" speed="11.60" length="30.67" shape="1548.17,850.56 1558.85,853.70 1566.14,857.55 1570.05,862.11 1570.56,867.37"/>
    </edge>
    <edge id=":2_06_11" function="internal">
        <lane id=":2_06_11_0" index="0" allow="emergency bus tram rail_electric" speed="11.37" length="35.38" shape="1548.17,850.56 1557.78,854.07 1563.15,859.44 1564.23,866.82 1560.97,876.37"/>
    </edge>
    <edge id=":2_06_12" function="internal">
        <lane id=":2_06_12_0" index="0" disallow="tram rail_urban rail rail_electric pedestrian ship" speed="13.89" length="36.38" shape="1550.84,871.22 1555.31,863.94 1560.80,855.84 1565.86,847.59 1569.00,839.82"/>
    </edge>
    <edge id=":2_06_13" function="internal">
        <lane id=":2_06_13_0" index="0" disallow="tram rail_urban rail rail_electric pedestrian ship" speed="15.28" length="40.77" shape="1553.70,872.67 1559.89,863.32 1567.35,856.71 1576.07,852.85 1586.06,851.74"/>
    </edge>
    <edge id=":2_06_14" function="internal">
        <lane id=":2_06_14_0" index="0" allow="emergency bus tram rail_electric" speed="13.89" length="37.18" shape="1558.33,874.99 1561.17,869.12 1565.27,859.76 1569.35,849.40 1572.12,840.52"/>
    </edge>
    <edge id=":2_06_15" function="internal">
        <lane id=":2_06_15_0" index="0" disallow="tram rail_urban rail rail_electric pedestrian ship" speed="15.28" length="37.93" shape="1558.33,874.99 1564.84,864.68 1571.63,857.37 1578.70,853.06 1586.06,851.74"/>
    </edge>
    <edge id=":3348674926_0" function="internal">
        <lane id=":3348674926_0_0" index="0" allow="emergency bus tram rail_electric" speed="13.89" length="0.31" shape="1549.93,897.54 1549.79,897.81"/>
    </edge>
    <edge id=":3348674926_1" function="internal">
        <lane id=":3348674926_1_0" index="0" allow="emergency bus tram rail_electric" speed="13.89" length="0.29" shape="1546.97,896.29 1547.11,896.04"/>
    </edge>
    <edge id=":644899650_0" function="internal">
        <lane id=":644899650_0_0" index="0" disallow="tram rail_urban rail rail_electric pedestrian ship" speed="16.67" length="8.11" shape="1795.58,813.37 1793.39,814.78 1792.27,816.38 1791.13,817.91 1788.87,819.12"/>
        <lane id=":644899650_0_1" index="1" disallow="tram rail_urban rail rail_electric pedestrian ship" speed="16.67" length="8.11" shape="1795.58,813.37 1793.34,814.26 1791.80,814.84 1790.24,815.35 1787.94,816.06"/>
        <lane id=":644899650_0_2" index="2" disallow="tram rail_urban rail rail_electric pedestrian ship" speed="16.67" length="8.11" shape="1794.38,810.40 1792.22,811.26 1790.74,811.82 1789.23,812.32 1787.02,812.99"/>
        <lane id=":644899650_0_3" index="3" disallow="all" speed="16.67" length="8.11" shape="1793.18,807.43 1791.11,808.27 1789.67,808.80 1788.22,809.28 1786.09,809.93"/>
    </edge>
    <edge id=":644899650_4" function="internal">
        <lane id=":644899650_4_0" index="0" disallow="tram rail_urban rail rail_electric pedestrian ship" speed="16.67" length="7.09" shape="1784.23,803.81 1786.20,803.20 1787.55,802.76 1788.87,802.27 1790.78,801.50"/>
        <lane id=":644899650_4_1" index="1" disallow="tram rail_urban rail rail_electric pedestrian ship" speed="16.67" length="7.09" shape="1785.16,806.87 1787.21,806.24 1788.61,805.78 1789.99,805.27 1791.98,804.47"/>
    </edge>
    <edge id=":cluster_3633911828_3633911829_0" function="internal">
        <lane id=":cluster_3633911828_3633911829_0_0" index="0" disallow="tram rail_urban rail rail_electric pedestrian ship" speed="13.89" length="12.02" shape="1604.18,721.30 1603.25,733.49"/>
        <lane id=":cluster_3633911828_3633911829_0_1" index="1" disallow="tram rail_urban rail rail_electric pedestrian ship" speed="13.89" length="12.02" shape="1600.99,721.06 1600.08,733.05"/>
        <lane id=":cluster_3633911828_3633911829_0_2" index="2" allow="emergency bus tram rail_electric" speed="13.89" length="12.02" shape="1597.80,720.83 1596.91,732.61"/>
    </edge>
    <edge id=":cluster_3633911828_3633911829_3" function="internal">
        <lane id=":cluster_3633911828_3633911829_3_0" index="0" disallow="tram rail_urban rail rail_electric pedestrian ship" speed="13.89" length="11.50" shape="1590.57,731.73 1591.41,720.36"/>
        <lane id=":cluster_3633911828_3633911829_3_1" index="1" allow="emergency bus tram rail_electric" speed="13.89" length="11.50" shape="1593.74,732.17 1594.60,720.59"/>
    </edge>
    <edge id=":gneJ23_0" function="internal">
        <lane id=":gneJ23_0_0" index="0" disallow="tram rail_urban rail rail_electric pedestrian ship" speed="16.67" length="0.24" shape="1498.56,845.97 1498.38,845.93"/>
        <lane id=":gneJ23_0_1" index="1" disallow="tram rail_urban rail rail_electric pedestrian ship" speed="16.67" length="0.24" shape="1499.29,842.86 1499.00,842.79"/>
    </edge>
    <edge id=":gneJ24_0" function="internal">
        <lane id=":gneJ24_0_0" index="0" disallow="tram rail_urban rail rail_electric pedestrian ship" speed="13.89" length="8.40" shape="1536.39,897.07 1540.39,890.14"/>
        <lane id=":gneJ24_0_1" index="1" disallow="tram rail_urban rail rail_electric pedestrian ship" speed="13.89" length="8.40" shape="1536.39,897.07 1538.05,895.18 1539.77,894.40 1541.49,893.62 1543.16,891.74"/>
    </edge>
    <edge id=":gneJ26_0" function="internal">
        <lane id=":gneJ26_0_0" index="0" disallow="rail_urban rail pedestrian ship" speed="9.88" length="8.18" shape="1546.43,879.69 1547.34,877.57 1547.37,875.94 1546.87,874.22 1546.20,871.86"/>
    </edge>
    <edge id=":gneJ26_1" function="internal">
        <lane id=":gneJ26_1_0" index="0" disallow="tram rail_urban rail rail_electric pedestrian ship" speed="13.89" length="8.31" shape="1546.43,879.69 1550.24,872.39"/>
        <lane id=":gneJ26_1_1" index="1" disallow="tram rail_urban rail rail_electric pedestrian ship" speed="13.89" length="8.31" shape="1549.20,881.29 1553.08,873.86"/>
    </edge>
    <edge id=":gneJ46_0" function="internal">
        <lane id=":gneJ46_0_0" index="0" disallow="tram rail_urban rail rail_electric pedestrian ship" speed="16.67" length="20.83" shape="2138.49,606.55 2121.53,618.24"/>
        <lane id=":gneJ46_0_1" index="1" disallow="tram rail_urban rail rail_electric pedestrian ship" speed="16.67" length="20.83" shape="2136.78,603.84 2119.63,615.66"/>
        <lane id=":gneJ46_0_2" index="2" disallow="all" speed="16.67" length="20.83" shape="2135.08,601.14 2117.74,613.08"/>
    </edge>
    <edge id=":gneJ46_3" function="internal">
        <lane id=":gneJ46_3_0" index="0" disallow="tram rail_urban pedestrian ship" speed="8.50" length="16.70" shape="2118.02,583.45 2121.44,588.77 2124.58,592.13 2127.42,593.55 2129.96,593.01"/>
    </edge>
    <edge id=":gneJ46_4" function="internal">
        <lane id=":gneJ46_4_0" index="0" disallow="tram rail_urban rail rail_electric pedestrian ship" speed="12.92" length="35.20" shape="2118.02,583.45 2123.14,594.30 2125.11,603.29 2123.94,610.41 2119.63,615.66"/>
    </edge>
    <edge id=":gneJ46_5" function="internal">
        <lane id=":gneJ46_5_0" index="0" disallow="tram rail_urban rail rail_electric ship" speed="9.71" length="20.35" shape="2113.95,607.93 2115.28,605.55 2114.84,601.68 2112.62,596.32 2108.64,589.46"/>
    </edge>
    <edge id=":gneJ46_6" function="internal">
        <lane id=":gneJ46_6_0" index="0" disallow="tram rail_urban pedestrian ship" speed="16.67" length="21.40" shape="2113.95,607.93 2131.67,595.72"/>
        <lane id=":gneJ46_6_1" index="1" disallow="tram rail_urban pedestrian ship" speed="16.67" length="21.40" shape="2115.84,610.50 2133.37,598.43"/>
    </edge>

    <edge id="-16232970" from="164990756" to="2_06" name="Vídeňská" priority="9" type="highway.primary" shape="1590.13,769.81 1573.60,841.23 1572.74,845.07">
        <lane id="-16232970_0" index="0" disallow="tram rail_urban rail rail_electric pedestrian ship" speed="13.89" length="72.61" shape="1597.86,771.89 1581.49,842.60">
            <param key="origId" value="16232970 221128579"/>
        </lane>
        <lane id="-16232970_1" index="1" disallow="tram rail_urban rail rail_electric pedestrian ship" speed="13.89" length="72.61" shape="1594.74,771.17 1578.37,841.91">
            <param key="origId" value="16232970 221128579"/>
        </lane>
        <lane id="-16232970_2" index="2" allow="emergency bus tram rail_electric" speed="13.89" length="72.61" shape="1591.62,770.45 1575.25,841.21">
            <param key="origId" value="16232970 221128579"/>
        </lane>
    </edge>
    <edge id="-226151681" from="1205631973" to="gneJ23" name="Poříčí" priority="15" type="highway.primary|railway.rail">
        <lane id="-226151681_0" index="0" disallow="tram rail_urban rail rail_electric pedestrian ship" speed="16.67" length="36.80" shape="1534.37,854.44 1498.56,845.97">
            <param key="origId" value="226151681"/>
        </lane>
        <lane id="-226151681_1" index="1" disallow="tram rail_urban rail rail_electric pedestrian ship" speed="16.67" length="36.80" shape="1535.10,851.33 1499.29,842.86">
            <param key="origId" value="226151681"/>
        </lane>
    </edge>
    <edge id="-226151681#1" from="25310540" to="25310538" name="Poříčí" priority="15" type="highway.primary|railway.rail" shape="1386.67,818.69 1371.17,815.15 1318.12,801.50 1280.61,788.98 1239.11,773.36 1206.76,758.99 1169.27,739.95 1053.98,674.63">
        <lane id="-226151681#1_0" index="0" disallow="tram rail_urban rail rail_electric pedestrian ship" speed="16.67" length="363.55" shape="1385.44,823.33 1370.04,819.81 1316.76,806.11 1279.00,793.50 1237.29,777.80 1204.70,763.33 1167.00,744.18 1053.12,679.66">
            <param key="origId" value="226151681"/>
        </lane>
        <lane id="-226151681#1_1" index="1" disallow="tram rail_urban rail rail_electric pedestrian ship" speed="16.67" length="363.55" shape="1386.15,820.21 1370.79,816.70 1317.67,803.04 1280.07,790.49 1238.50,774.84 1206.07,760.44 1168.51,741.36 1054.70,676.88">
            <param key="origId" value="226151681"/>
        </lane>
    </edge>
    <edge id="-226151681.34" from="gneJ23" to="25310540" name="Poříčí" priority="15" type="highway.primary|railway.rail" length="51.80">
        <lane id="-226151681.34_0" index="0" disallow="tram rail_urban rail rail_electric pedestrian ship" speed="16.67" length="51.80" shape="1498.38,845.93 1385.88,823.43">
            <param key="origId" value="226151681"/>
        </lane>
        <lane id="-226151681.34_1" index="1" disallow="tram rail_urban rail rail_electric pedestrian ship" speed="16.67" length="51.80" shape="1499.00,842.79 1386.51,820.29">
            <param key="origId" value="226151681"/>
        </lane>
    </edge>
    <edge id="-243157990" from="3348674926" to="2_06" name="Křížová" priority="9" type="highway.primary" shape="1548.45,896.92 1555.18,884.21 1559.74,875.75">
        <lane id="-243157990_0" index="0" allow="emergency bus tram rail_electric" speed="13.89" length="23.86" shape="1547.11,896.04 1553.77,883.46 1558.33,874.99">
            <param key="origId" value="243157990"/>
        </lane>
    </edge>
    <edge id="-328042384" from="21416306" to="cluster_21291533_3348674946" name="Křížová" priority="9" type="highway.primary" shape="1525.50,940.98 1518.42,955.74 1513.90,966.85">
        <lane id="-328042384_0" index="0" disallow="tram rail_urban rail rail_electric pedestrian ship" speed="13.89" length="29.12" shape="1530.31,942.04 1522.81,957.68 1518.41,968.50">
            <param key="origId" value="328042384 328042387"/>
        </lane>
        <lane id="-328042384_1" index="1" allow="emergency bus tram rail_electric" speed="13.89" length="29.12" shape="1527.43,940.66 1519.88,956.39 1515.45,967.30">
            <param key="origId" value="328042384 328042387"/>
        </lane>
    </edge>
    <edge id="-328042389" from="21416306" to="3348674926" name="Křížová" priority="9" type="highway.primary" shape="1525.50,940.98 1538.05,916.28 1548.45,896.92">
        <lane id="-328042389_0" index="0" allow="emergency bus tram rail_electric" speed="13.89" length="39.42" shape="1528.67,931.21 1536.63,915.54 1546.97,896.29">
            <param key="origId" value="328042389"/>
        </lane>
    </edge>
    <edge id="-4463914#2" from="2301863409" to="2_06" name="Poříčí" priority="15" type="highway.primary|railway.rail" shape="1658.45,846.91 1627.59,852.77 1600.13,853.84 1585.87,853.66">
        <lane id="-4463914#2_0" index="0" disallow="tram rail_urban rail rail_electric pedestrian ship" speed="16.67" length="69.01" shape="1654.96,855.72 1628.50,860.74 1600.24,861.84 1585.77,861.66">
            <param key="origId" value="4463914"/>
        </lane>
        <lane id="-4463914#2_1" index="1" disallow="tram rail_urban rail rail_electric pedestrian ship" speed="16.67" length="69.01" shape="1654.37,852.57 1628.13,857.55 1600.19,858.64 1585.81,858.46">
            <param key="origId" value="4463914"/>
        </lane>
        <lane id="-4463914#2_2" index="2" disallow="tram rail_urban rail rail_electric pedestrian ship" speed="16.67" length="69.01" shape="1653.77,849.43 1627.77,854.36 1600.15,855.44 1585.97,855.26">
            <param key="origId" value="4463914"/>
        </lane>
    </edge>
    <edge id="-4463914#4.502" from="644899650" to="2301863409" name="Poříčí" priority="15" type="highway.primary|railway.rail">
        <lane id="-4463914#4.502_0" index="0" disallow="tram rail_urban rail rail_electric pedestrian ship" speed="16.67" length="128.69" shape="1788.87,819.12 1665.70,856.42">
            <param key="origId" value="4463914"/>
        </lane>
        <lane id="-4463914#4.502_1" index="1" disallow="tram rail_urban rail rail_electric pedestrian ship" speed="16.67" length="128.69" shape="1787.94,816.06 1664.78,853.35">
            <param key="origId" value="4463914"/>
        </lane>
        <lane id="-4463914#4.502_2" index="2" disallow="tram rail_urban rail rail_electric pedestrian ship" speed="16.67" length="128.69" shape="1787.02,812.99 1663.85,850.29">
            <param key="origId" value="4463914"/>
        </lane>
        <lane id="-4463914#4.502_3" index="3" disallow="all" speed="16.67" length="128.69" shape="1786.09,809.93 1662.92,847.23">
            <param key="origId" value="4463914"/>
        </lane>
    </edge>
    <edge id="-4463914#5" from="gneJ46" to="644899650" name="Poříčí" priority="15" type="highway.primary|railway.rail" shape="2126.59,604.59 2062.63,651.60 2045.07,665.06 1996.32,700.30 1985.84,707.35 1962.68,723.41 1921.83,748.78 1885.03,767.83 1844.84,784.83 1789.19,807.32">
        <lane id="-4463914#5_0" index="0" disallow="tram rail_urban rail rail_electric pedestrian ship" speed="16.67" length="381.04" shape="2121.53,618.24 2067.43,658.00 2049.85,671.48 2000.90,706.86 1990.35,713.96 1967.07,730.10 1925.79,755.74 1888.43,775.08 1847.90,792.22 1795.58,813.37">
            <param key="origId" value="4463914"/>
        </lane>
        <lane id="-4463914#5_1" index="1" disallow="tram rail_urban rail rail_electric pedestrian ship" speed="16.67" length="381.04" shape="2119.63,615.66 2065.51,655.44 2047.94,668.91 1999.07,704.24 1988.55,711.31 1965.32,727.42 1924.20,752.96 1887.07,772.18 1846.67,789.27 1794.38,810.40">