<?xml version="1.0" encoding="UTF-8"?>

<!-- generated on Fri Nov 15 16:27:16 2019 by Eclipse SUMO polyconvert Version 1.2.0
<configuration xmlns:xsi="http://www.w3.org/2001/XMLSchema-instance" xsi:noNamespaceSchemaLocation="http://sumo.dlr.de/xsd/polyconvertConfiguration.xsd">

    <input>
        <net-file value="osm.net.xml"/>
        <osm-files value="osm_bbox.osm.xml"/>
        <osm.keep-full-type value="true"/>
        <type-file value="/usr/local/share/sumo/data/typemap/osmPolyconvert.typ.xml"/>
    </input>

    <output>
        <output-file value="osm.poly.xml"/>
    </output>

    <processing>
        <poi-layer-offset value="5"/>
    </processing>

    <report>
        <verbose value="true"/>
    </report>

</configuration>
-->

<additional xmlns:xsi="http://www.w3.org/2001/XMLSchema-instance" xsi:noNamespaceSchemaLocation="http://sumo.dlr.de/xsd/additional_file.xsd">
    <location netOffset="-614646.22,-5448589.73" convBoundary="-531.48,-3794.87,4180.36,2182.81" origBoundary="16.566411,49.144490,16.629472,49.199120" projParameter="+proj=utm +zone=33 +ellps=WGS84 +datum=WGS84 +units=m +no_defs"/>

    <poly id="108625632" type="leisure.playground" color="207,245,201" fill="1" layer="-2.00" shape="2188.814544,854.564089 2183.853047,827.934809 2158.750863,832.574472 2163.712474,859.203728 2188.814544,854.564089"/>
    <poly id="108625636" type="building" color="255,230,230" fill="1" layer="-1.00" shape="2138.479291,922.360686 2123.116395,927.351326 2116.313896,905.376295 2116.137846,905.428174 2116.028324,905.092218 2131.651927,900.529685 2138.479291,922.360686"/>
    <poly id="108625638" type="leisure.pitch" color="207,245,201" fill="1" layer="-2.00" shape="2191.728227,910.065235 2221.385899,907.157094 2219.509254,888.044382 2189.851717,890.941419 2191.728227,910.065235"/>
    <poly id="108625638#1" type="sport.tennis" color="79,230,125" fill="1" layer="-2.00" shape="2191.728227,910.065235 2221.385899,907.157094 2219.509254,888.044382 2189.851717,890.941419 2191.728227,910.065235"/>
    <poly id="108625639" type="building" color="255,230,230" fill="1" layer="-1.00" shape="2178.360548,891.064982 2176.731903,885.358646 2161.789894,888.712154 2162.774549,893.848783 2178.360548,891.064982"/>
    <poly id="110440431" type="amenity.parking" color="184,184,179" fill="1" layer="-1.00" shape="1383.432700,659.855182 1382.505724,654.019301 1397.774488,652.461065 1398.593388,658.928582 1383.432700,659.855182"/>
    <poly id="112713103" type="building" color="255,230,230" fill="1" layer="-1.00" shape="2242.257951,975.172175 2248.904280,974.567930 2275.857699,971.980893 2286.436567,970.870646 2294.631850,970.099117 2300.781544,969.540009 2299.707284,960.041917 2300.226264,959.975073 2300.179995,959.406908 2231.487095,966.425008 2231.539950,967.026676 2232.022260,966.970171 2232.951161,976.109285 2242.257951,975.172175"/>
    <poly id="126732584" type="landuse.grass" color="194,194,130" fill="1" layer="-3.00" shape="929.478139,859.723700 930.722063,858.804471 896.228933,833.337134 864.155769,807.865105 863.731427,808.634697 863.620637,809.399736 863.683327,810.235135 863.933602,811.163432 864.312871,811.849766 887.402018,829.815864 913.871834,857.250277 915.078253,858.120764 916.581784,859.075326 917.842701,859.780138 920.765688,860.831173 922.693098,861.038380 924.477109,861.131372 926.610339,860.909169 928.085395,860.439630 929.478139,859.723700"/>
    <poly id="126732585" type="landuse.village_green" color="242,242,204" fill="1" layer="-3.00" shape="868.197879,779.501872 871.488464,779.014738 874.141889,777.624568 880.520553,772.397789 877.256265,769.193247 874.701808,768.294532 872.344498,769.468482 869.515070,772.300715 836.989753,741.592455 839.778718,738.603662 839.717350,737.356808 838.248716,737.170359 834.039494,739.751295 829.113967,745.208734 866.893287,779.140912 868.197879,779.501872"/>
    <poly id="126732586" type="landuse.grass" color="194,194,130" fill="1" layer="-3.00" shape="957.733055,891.355061 951.568331,884.986868 957.246804,878.733477 933.737868,860.991816 933.478038,862.954815 933.645819,863.992598 933.984449,864.878266 936.609194,864.855428 936.874516,867.151947 939.279503,867.180110 939.341037,869.461236 941.825008,869.546662 941.928163,871.928751 944.421283,871.925400 944.539941,874.263330 946.902837,874.212766 947.233033,876.544009 949.984734,876.724019 950.095992,883.588104 950.237376,885.537270 950.477273,887.655318 951.144738,889.893540 951.962887,892.246132 953.564362,895.482595 957.733055,891.355061"/>
    <poly id="126732589" type="building" color="255,230,230" fill="1" layer="-1.00" shape="821.882019,843.067961 822.661580,843.784915 835.678582,829.622228 840.646600,824.221293 836.977305,820.863718 835.689713,819.691278 830.067744,814.546800 825.479951,819.544223 828.555648,822.355546 820.447186,831.171658 817.371257,828.371456 810.463636,835.889306 803.861992,843.068815 806.952026,845.891547 805.206272,847.801201 811.908466,853.924688 821.882019,843.067961"/>
    <poly id="126732591" type="building" color="255,230,230" fill="1" layer="-1.00" shape="1003.190588,919.877506 1004.896181,920.580543 1006.927214,922.102251 1009.100594,924.483275 1007.766264,925.889921 1007.349256,927.004413 1007.383301,928.161727 1007.827480,929.227553 1008.647692,930.089963 1009.686667,930.601083 1010.726516,930.722981 1010.879296,930.737307 1012.001567,930.404966 1013.521379,929.191271 1015.824509,931.641745 1020.446677,937.521693 1021.189010,939.316649 1021.286881,941.253784 1021.051504,942.049571 1020.730148,943.121583 1019.581999,944.687828 1017.970033,945.777256 1017.361538,945.942432 1016.086257,946.271562 1014.143140,946.119597 1013.406696,945.781638 1012.366792,945.314982 1010.958896,943.973158 997.012500,928.055455 996.392627,926.329798 996.365745,924.483122 996.903469,922.826224 998.044096,921.270938 999.574517,920.246521 1000.857555,919.895307 1001.348772,919.761033 1003.190588,919.877506"/>
    <poly id="126732592" type="amenity.parking" color="184,184,179" fill="1" layer="-1.00" shape="873.189253,805.007123 869.925953,809.064715 877.247081,815.568244 889.203332,824.559933 928.406466,854.162907 931.388579,849.610125 873.189253,805.007123"/>
    <poly id="126732595" type="amenity.parking" color="184,184,179" fill="1" layer="-1.00" shape="842.199702,736.129858 836.989753,741.592455 869.515070,772.300715 872.344498,769.468482 875.103693,766.857201 842.199702,736.129858"/>
    <poly id="137305647" type="building" color="255,230,230" fill="1" layer="-1.00" shape="1352.385319,898.630045 1356.884636,901.671800 1358.779264,898.931357 1354.444221,895.703996 1352.385319,898.630045"/>
    <poly id="145436388" type="amenity.exhibition_center" color="237,199,199" fill="1" layer="-1.00" shape="-179.869669,959.607904 -179.059666,960.970367 -176.523597,965.215653 -163.886335,986.407848 -146.638331,1014.079306 -139.280510,1022.717465 -138.427271,1024.103074 -146.059160,1029.015818 -151.464067,1032.695885 -159.741831,1038.173533 -165.127676,1028.998043 -184.156459,1036.899364 -186.275729,1033.997260 -226.489169,1059.208289 -229.249477,1060.852540 -233.194334,1054.242623 -234.539863,1051.990492 -185.092621,1022.300203 -183.837816,1021.547773 -177.006023,1014.794514 -174.793234,1012.138025 -173.182960,1007.956563 -172.759142,1006.853253 -171.777754,1003.470576 -171.759992,1000.156864 -172.352358,998.142774 -173.371975,995.641609 -175.205540,993.724086 -182.262574,993.066033 -184.362771,990.297777 -186.238651,986.555524 -184.196876,982.305168 -183.537932,979.004765 -194.618869,960.792003 -198.604463,964.924174 -207.186716,973.831987 -217.986485,987.031017 -238.910337,1015.300371 -246.510576,1027.475967 -252.957584,1039.931279 -259.934888,1055.111382 -263.429798,1064.058076 -265.646721,1069.728323 -270.608979,1082.648172 -271.012940,1086.309747 -269.636969,1090.608777 -266.733456,1100.333210 -261.820615,1115.448560 -260.155148,1114.927053 -257.289893,1123.683167 -258.449853,1124.081706 -253.370128,1139.934518 -253.598302,1140.040995 -252.324963,1144.015391 -249.895005,1151.617009 -247.607452,1158.704104 -245.415222,1165.466712 -246.867767,1165.914784 -246.313902,1168.028157 -244.728825,1167.516109 -244.182383,1169.284575 -242.988419,1172.868090 -216.040700,1164.096647 -192.279942,1156.460261 -189.191686,1166.055125 -186.354697,1174.410335 -185.109637,1178.339677 -180.724365,1176.718059 -175.393526,1175.193920 -29.941900,1128.704167 -25.813507,1127.522173 -23.611037,1127.467864 -21.135379,1128.297800 -18.589266,1130.296916 -17.690157,1131.928164 -16.423794,1136.580861 -13.767918,1145.221552 -14.005081,1147.162813 -14.901589,1148.211801 -14.081924,1150.508664 -13.517053,1152.088480 -10.281763,1161.608663 -9.006754,1165.494188 -0.861089,1187.405268 -1.134772,1191.102902 -4.048859,1195.234968 -29.600795,1203.823094 -41.162127,1207.719843 -142.452741,1241.481095 -186.414885,1254.213947 -198.795933,1258.283062 -199.360868,1258.460395 -199.026009,1259.534968 -194.313729,1258.309366 -192.377210,1264.744181 -189.392873,1274.425860 -205.997751,1279.719604 -172.489415,1385.008916 -168.415178,1382.913769 -166.009730,1380.450346 -160.425726,1378.308704 -170.011345,1362.195417 -173.640070,1355.469674 -156.721744,1344.900027 -73.981697,1300.176946 -62.612734,1293.951830 -46.268733,1285.083222 -18.884089,1335.930887 -16.530704,1340.183584 -13.346733,1338.492643 -12.723026,1339.695566 -10.025587,1344.578200 -3.226267,1356.908282 70.050213,1371.221549 112.021938,1379.167939 131.373717,1372.175195 135.722862,1370.186081 146.810322,1365.234460 146.027308,1362.582457 230.371627,1323.891534 331.088326,1276.112516 430.007925,1227.563779 440.327030,1223.831139 444.575660,1222.129312 487.432580,1212.503385 489.804836,1211.996860 547.801394,1199.584732 717.862426,1155.452496 726.309825,1152.704367 762.785909,1140.478150 772.035594,1138.058273 816.425859,1131.158269 824.211225,1129.397329 824.804423,1129.265175 827.090109,1128.022984 857.806870,1118.290253 857.663875,1117.809049 856.806132,1114.910704 856.996968,1114.847974 854.116019,1105.879588 846.069292,1080.788553 844.105517,1074.664155 841.800206,1075.449962 841.368882,1074.117512 840.972126,1072.874755 841.465470,1070.549645 840.958422,1069.004307 844.663772,1067.847460 848.463078,1066.381190 848.729776,1067.220862 869.836894,1060.745610 875.494350,1058.962406 873.459267,1053.459288 878.849938,1051.537045 877.211803,1045.875424 876.137728,1040.081045 875.548933,1035.130919 875.332402,1031.200616 875.440981,1023.929656 876.239722,1017.118001 875.813328,1016.942251 877.631977,1010.507838 881.884262,998.207956 886.058913,990.310426 889.687338,984.825867 892.820336,980.721074 896.084091,976.986020 902.502818,970.881541 904.843185,968.773075 915.728973,960.649193 922.346087,956.906577 929.021862,953.843589 939.561891,950.394512 950.559825,948.400804 962.450971,947.960562 964.919868,948.067925 983.792730,950.487662 983.881737,950.066924 987.419547,921.793269 974.335107,920.039816 971.613040,919.838172 971.951914,916.887048 962.669138,915.647052 964.466539,910.580121 965.581090,907.834318 976.002082,897.899176 972.477480,894.600146 974.531406,892.596914 970.855588,888.860989 970.661714,889.068226 962.669433,880.860080 962.841681,880.641267 960.307904,878.063649 958.462891,879.837721 957.246804,878.733477 933.737868,860.991816 932.122416,859.812481 930.722063,858.804471 896.228933,833.337134 864.155769,807.865105 861.263244,805.357869 855.098519,800.024059 853.559157,798.690646 834.993432,782.621041 832.741002,780.527586 826.278494,774.442459 807.858121,757.341729 752.459034,704.936056 750.371807,702.957305 747.838314,700.357555 664.878796,621.619698 662.696314,619.661234 661.544297,618.625126 657.765787,622.571979 650.679724,616.307219 644.990081,610.894624 640.225793,615.966358 632.147606,609.035859 630.527982,607.700835 623.810623,601.232517 625.710104,599.292656 607.314597,580.246967 598.476921,572.677868 596.650607,571.116113 595.010497,569.713945 590.429536,565.314355 588.864001,566.972056 567.980609,589.189495 565.811158,591.490733 564.759804,592.614246 562.751694,590.681708 553.802212,599.981087 537.521330,617.201296 527.627289,607.853113 526.670119,608.656088 508.609290,627.685314 510.775990,642.621732 509.896612,644.238175 497.836223,645.076241 493.485454,645.363528 492.860003,646.340250 489.765658,648.599965 483.556148,669.133374 484.410129,670.129860 481.922172,673.025020 484.867753,676.144816 454.023246,708.686423 451.929792,706.652053 448.389073,710.392704 438.347085,709.882877 425.226602,712.622928 401.503970,699.772457 396.353393,694.371368 385.416583,682.588410 374.451274,670.771517 366.790171,660.958626 359.809051,650.348085 356.809255,644.580404 354.720654,638.464729 350.244139,614.016165 350.235989,598.324114 350.230849,582.487552 319.415472,538.806459 309.813415,544.456018 289.785509,558.907530 277.144109,568.730946 264.778030,578.637974 247.744768,593.174267 230.355321,609.415840 217.984178,621.324658 214.599493,624.579376 148.757430,689.712678 80.088353,757.657147 42.306214,793.392965 26.573949,807.122875 13.657523,817.953161 3.047895,826.173492 -21.732558,844.208355 -34.719749,853.191178 -51.988348,864.398249 -60.995665,870.238717 -77.739791,880.767256 -63.799729,904.855988 -68.392710,907.340651 -91.174803,920.090329 -92.904896,917.051700 -105.353718,924.344337 -110.144521,927.581158 -110.402673,927.375617 -122.334995,908.044038 -143.672744,921.101950 -154.332777,927.909146 -163.788695,934.652389 -171.861018,941.112979 -174.701283,943.445052 -184.591813,951.814106 -179.869669,959.607904"/>
    <poly id="145436388#1" type="landuse.commercial" color="209,209,204" fill="1" layer="-3.00" shape="-179.869669,959.607904 -179.059666,960.970367 -176.523597,965.215653 -163.886335,986.407848 -146.638331,1014.079306 -139.280510,1022.717465 -138.427271,1024.103074 -146.059160,1029.015818 -151.464067,1032.695885 -159.741831,1038.173533 -165.127676,1028.998043 -184.156459,1036.899364 -186.275729,1033.997260 -226.489169,1059.208289 -229.249477,1060.852540 -233.194334,1054.242623 -234.539863,1051.990492 -185.092621,1022.300203 -183.837816,1021.547773 -177.006023,1014.794514 -174.793234,1012.138025 -173.182960,1007.956563 -172.759142,1006.853253 -171.777754,1003.470576 -171.759992,1000.156864 -172.352358,998.142774 -173.371975,995.641609 -175.205540,993.724086 -182.262574,993.066033 -184.362771,990.297777 -186.238651,986.555524 -184.196876,982.305168 -183.537932,979.004765 -194.618869,960.792003 -198.604463,964.924174 -207.186716,973.831987 -217.986485,987.031017 -238.910337,1015.300371 -246.510576,1027.475967 -252.957584,1039.931279 -259.934888,1055.111382 -263.429798,1064.058076 -265.646721,1069.728323 -270.608979,1082.648172 -271.012940,1086.309747 -269.636969,1090.608777 -266.733456,1100.333210 -261.820615,1115.448560 -260.155148,1114.927053 -257.289893,1123.683167 -258.449853,1124.081706 -253.370128,1139.934518 -253.598302,1140.040995 -252.324963,1144.015391 -249.895005,1151.617009 -247.607452,1158.704104 -245.415222,1165.466712 -246.867767,1165.914784 -246.313902,1168.028157 -244.728825,1167.516109 -244.182383,1169.284575 -242.988419,1172.868090 -216.040700,1164.096647 -192.279942,1156.460261 -189.191686,1166.055125 -186.354697,1174.410335 -185.109637,1178.339677 -180.724365,1176.718059 -175.393526,1175.193920 -29.941900,1128.704167 -25.813507,1127.522173 -23.611037,1127.467864 -21.135379,1128.297800 -18.589266,1130.296916 -17.690157,1131.928164 -16.423794,1136.580861 -13.767918,1145.221552 -14.005081,1147.162813 -14.901589,1148.211801 -14.081924,1150.508664 -13.517053,1152.088480 -10.281763,1161.608663 -9.006754,1165.494188 -0.861089,1187.405268 -1.134772,1191.102902 -4.048859,1195.234968 -29.600795,1203.823094 -41.162127,1207.719843 -142.452741,1241.481095 -186.414885,1254.213947 -198.795933,1258.283062 -199.360868,1258.460395 -199.026009,1259.534968 -194.313729,1258.309366 -192.377210,1264.744181 -189.392873,1274.425860 -205.997751,1279.719604 -172.489415,1385.008916 -168.415178,1382.913769 -166.009730,1380.450346 -160.425726,1378.308704 -170.011345,1362.195417 -173.640070,1355.469674 -156.721744,1344.900027 -73.981697,1300.176946 -62.612734,1293.951830 -46.268733,1285.083222 -18.884089,1335.930887 -16.530704,1340.183584 -13.346733,1338.492643 -12.723026,1339.695566 -10.025587,1344.578200 -3.226267,1356.908282 70.050213,1371.221549 112.021938,1379.167939 131.373717,1372.175195 135.722862,1370.186081 146.810322,1365.234460 146.027308,1362.582457 230.371627,1323.891534 331.088326,1276.112516 430.007925,1227.563779 440.327030,1223.831139 444.575660,1222.129312 487.432580,1212.503385 489.804836,1211.996860 547.801394,1199.584732 717.862426,1155.452496 726.309825,1152.704367 762.785909,1140.478150 772.035594,1138.058273 816.425859,1131.158269 824.211225,1129.397329 824.804423,1129.265175 827.090109,1128.022984 857.806870,1118.290253 857.663875,1117.809049 856.806132,1114.910704 856.996968,1114.847974 854.116019,1105.879588 846.069292,1080.788553 844.105517,1074.664155 841.800206,1075.449962 841.368882,1074.117512 840.972126,1072.874755 841.465470,1070.549645 840.958422,1069.004307 844.663772,1067.847460 848.463078,1066.381190 848.729776,1067.220862 869.836894,1060.745610 875.494350,1058.962406 873.459267,1053.459288 878.849938,1051.537045 877.211803,1045.875424 876.137728,1040.081045 875.548933,1035.130919 875.332402,1031.200616 875.440981,1023.929656 876.239722,1017.118001 875.813328,1016.942251 877.631977,1010.507838 881.884262,998.207956 886.058913,990.310426 889.687338,984.825867 892.820336,980.721074 896.084091,976.986020 902.502818,970.881541 904.843185,968.773075 915.728973,960.649193 922.346087,956.906577 929.021862,953.843589 939.561891,950.394512 950.559825,948.400804 962.450971,947.960562 964.919868,948.067925 983.792730,950.487662 983.881737,950.066924 987.419547,921.793269 974.335107,920.039816 971.613040,919.838172 971.951914,916.887048 962.669138,915.647052 964.466539,910.580121 965.581090,907.834318 976.002082,897.899176 972.477480,894.600146 974.531406,892.596914 970.855588,888.860989 970.661714,889.068226 962.669433,880.860080 962.841681,880.641267 960.307904,878.063649 958.462891,879.837721 957.246804,878.733477 933.737868,860.991816 932.122416,859.812481 930.722063,858.804471 896.228933,833.337134 864.155769,807.865105 861.263244,805.357869 855.098519,800.024059 853.559157,798.690646 834.993432,782.621041 832.741002,780.527586 826.278494,774.442459 807.858121,757.341729 752.459034,704.936056 750.371807,702.957305 747.838314,700.357555 664.878796,621.619698 662.696314,619.661234 661.544297,618.625126 657.765787,622.571979 650.679724,616.307219 644.990081,610.894624 640.225793,615.966358 632.147606,609.035859 630.527982,607.700835 623.810623,601.232517 625.710104,599.292656 607.314597,580.246967 598.476921,572.677868 596.650607,571.116113 595.010497,569.713945 590.429536,565.314355 588.864001,566.972056 567.980609,589.189495 565.811158,591.490733 564.759804,592.614246 562.751694,590.681708 553.802212,599.981087 537.521330,617.201296 527.627289,607.853113 526.670119,608.656088 508.609290,627.685314 510.775990,642.621732 509.896612,644.238175 497.836223,645.076241 493.485454,645.363528 492.860003,646.340250 489.765658,648.599965 483.556148,669.133374 484.410129,670.129860 481.922172,673.025020 484.867753,676.144816 454.023246,708.686423 451.929792,706.652053 448.389073,710.392704 438.347085,709.882877 425.226602,712.622928 401.503970,699.772457 396.353393,694.371368 385.416583,682.588410 374.451274,670.771517 366.790171,660.958626 359.809051,650.348085 356.809255,644.580404 354.720654,638.464729 350.244139,614.016165 350.235989,598.324114 350.230849,582.487552 319.415472,538.806459 309.813415,544.456018 289.785509,558.907530 277.144109,568.730946 264.778030,578.637974 247.744768,593.174267 230.355321,609.415840 217.984178,621.324658 214.599493,624.579376 148.757430,689.712678 80.088353,757.657147 42.306214,793.392965 26.573949,807.122875 13.657523,817.953161 3.047895,826.173492 -21.732558,844.208355 -34.719749,853.191178 -51.988348,864.398249 -60.995665,870.238717 -77.739791,880.767256 -63.799729,904.855988 -68.392710,907.340651 -91.174803,920.090329 -92.904896,917.051700 -105.353718,924.344337 -110.144521,927.581158 -110.402673,927.375617 -122.334995,908.044038 -143.672744,921.101950 -154.332777,927.909146 -163.788695,934.652389 -171.861018,941.112979 -174.701283,943.445052 -184.591813,951.814106 -179.869669,959.607904"/>
    <poly id="154705499" type="landuse.allotments" color="194,194,130" fill="1" layer="-3.00" shape="1421.290560,496.636540 1433.275842,508.054439 1471.905652,493.887343 1514.944412,459.383740 1501.766838,438.810060 1451.914278,451.717573 1425.320550,455.828759 1397.174995,468.904457 1396.332634,474.291629 1395.650010,478.670133 1405.267780,491.739698 1421.290560,496.636540"/>
    <poly id="154708687" type="building" color="255,230,230" fill="1" layer="-1.00" shape="1143.280322,489.725508 1144.761769,487.220984 1143.112898,486.241070 1148.587890,476.513782 1149.200745,476.838041 1150.886128,473.648288 1156.452371,476.589928 1157.097902,475.357911 1158.256629,476.071752 1160.973291,471.680326 1146.867996,462.943220 1136.801387,480.948355 1136.974407,481.040956 1130.539232,492.405152 1139.406184,496.817328 1141.526852,493.380923 1139.778065,492.298822 1141.631452,488.745594 1143.280322,489.725508"/>
    <poly id="154708689" type="building" color="255,230,230" fill="1" layer="-1.00" shape="1223.600440,694.929703 1227.244530,655.414892 1237.561670,656.365659 1237.760238,654.201203 1278.679724,657.963767 1278.480673,660.150455 1312.662664,663.293451 1311.728126,673.416317 1287.179525,671.154208 1283.321149,712.866485 1233.205541,708.254492 1234.346952,695.911730 1223.600440,694.929703"/>
    <poly id="154708697" type="building" color="255,230,230" fill="1" layer="-1.00" shape="1190.996106,629.174843 1191.522303,623.558583 1187.973138,623.161527 1187.494918,628.923370 1190.996106,629.174843"/>
    <poly id="154708721" type="landuse.forest" color="140,196,107" fill="1" layer="-3.00" shape="813.359391,460.422360 831.529389,467.942521 835.420694,472.895053 886.496722,510.419803 898.365769,518.386511 932.829383,548.490677 944.439761,554.183356 952.744673,562.108856 971.734171,572.938536 1006.743767,600.263229 1025.625128,611.024110 1036.069812,619.105833 1053.470681,628.501222 1058.343393,635.654259 1063.727169,638.947859 1069.451166,637.143991 1123.330488,669.124806 1127.031981,663.653045 1129.484451,660.034542 1108.840196,653.050851 1063.059583,624.554194 1009.256884,590.273526 1010.421113,586.205355 1017.062801,581.662629 1021.173974,572.295865 1013.344645,568.116938 1007.946780,573.486474 1003.736228,573.687333 996.272641,570.839517 993.128794,568.493764 948.060504,534.819471 951.059461,530.166958 855.359914,451.626343 830.057716,428.898755 813.359391,460.422360"/>
    <poly id="154708724" type="landuse.forest" color="140,196,107" fill="1" layer="-3.00" shape="1078.413792,590.778868 1074.181884,585.396402 1065.616773,577.721039 1017.793521,547.513766 994.853661,530.384376 933.202935,495.528480 928.944769,501.478033 882.470784,467.697010 878.715657,465.294038 875.278712,461.274046 874.827366,458.806820 881.699317,460.674531 898.100460,467.368264 928.751984,482.846072 931.975598,485.215700 930.551380,487.777083 935.275528,490.901030 936.239964,490.798908 947.639234,498.222064 952.162697,500.485492 953.350077,498.441845 959.125505,498.362715 964.020998,500.266953 975.672930,503.981001 978.263134,501.788828 984.895126,509.534729 993.497990,504.988604 995.616197,504.098839 1002.977836,504.164225 1003.989417,502.161386 1012.811154,506.995011 1020.958812,512.337209 1026.473730,517.379539 1029.947368,519.643258 1042.674880,523.513462 1047.483697,527.462251 1053.770170,530.474502 1067.925458,534.741715 1069.956355,530.369224 1087.708338,539.371716 1091.416029,544.376192 1102.711078,548.761416 1106.344099,551.417771 1117.414127,549.503726 1126.516320,546.525250 1136.527672,544.689111 1145.999598,544.587688 1159.454993,547.116666 1164.356418,550.122206 1181.597186,549.438859 1200.153513,548.249381 1204.913345,562.506606 1191.972901,567.395028 1167.184985,574.770497 1145.574108,583.258163 1144.296180,602.459827 1143.549252,612.341982 1142.780311,624.314454 1133.615055,623.009928 1123.511405,619.872970 1111.783226,614.944790 1095.341363,603.623138 1098.092922,590.268761 1083.363101,590.460114 1078.413792,590.778868"/>
    <poly id="16232972" type="waterway.river" color="181,209,209" fill="0" layer="-4.00" shape="-501.625976,2175.032259 -506.717261,2146.734918 -521.549811,2085.217450 -519.735469,1997.576494 -494.714426,1840.531217 -502.714687,1701.018614 -498.726065,1655.515947 -487.470295,1616.680691 -429.682398,1538.005995 -414.702952,1510.502526 -404.643714,1485.132483 -396.507410,1453.372481 -394.169635,1421.103098 -398.030166,1376.305296 -431.530368,1259.507382 -488.774564,1060.044677 -488.114702,1045.423030 -481.295737,1036.100179 -430.201940,983.510207 -392.260190,933.873285 -370.667266,918.317484 -338.938588,902.604848 -226.710861,741.041001 -178.496325,667.263434 -141.789962,626.076716 -59.256170,541.613631 -44.308152,521.795060 -30.821628,503.903465 28.597584,425.100143 110.376022,382.116481 142.118176,379.985590 191.870197,360.903163 202.034466,355.220616 248.369223,326.970475 338.601928,310.845712 525.222814,348.747608 760.832994,450.359419 839.937984,490.427583 927.943595,565.259076 1035.749917,637.137640 1127.610732,688.520997 1226.189652,741.014635 1330.891121,776.823631 1372.758351,787.468631"/>
    <poly id="16232974" type="building" color="255,230,230" fill="1" layer="-1.00" shape="2131.311372,695.246603 2127.541736,689.428228 2122.882390,684.313898 2117.462377,680.006440 2111.417555,676.631065 2104.913640,674.280254 2098.102948,672.990595 2091.188100,672.833107 2084.330112,673.777832 2077.711628,675.806395 2071.508238,678.889147 2065.882367,682.929431 2060.982340,687.808052 2056.926860,693.427428 2053.836276,699.612164 2051.778988,706.230251 2050.810234,713.082675 2050.962683,720.003308 2052.225522,726.813982 2054.566313,733.324950 2057.930053,739.379353 2062.218255,744.808290 2067.324207,749.487170 2073.112522,753.268556 2079.446168,756.082822 2086.144865,757.837182 2093.042202,758.472511 2099.948261,758.007031 2106.680881,756.436884 2113.086341,753.792181 2118.980362,750.169109 2124.208513,745.631124 2128.643864,740.320112 2132.159952,734.355729 2134.673091,727.903018 2136.114169,721.127333 2136.466457,715.162687 2135.832253,708.276332 2134.100575,701.578042 2131.311372,695.246603"/>
    <poly id="16232974#1" type="leisure.stadium" color="207,245,201" fill="1" layer="-2.00" shape="2131.311372,695.246603 2127.541736,689.428228 2122.882390,684.313898 2117.462377,680.006440 2111.417555,676.631065 2104.913640,674.280254 2098.102948,672.990595 2091.188100,672.833107 2084.330112,673.777832 2077.711628,675.806395 2071.508238,678.889147 2065.882367,682.929431 2060.982340,687.808052 2056.926860,693.427428 2053.836276,699.612164 2051.778988,706.230251 2050.810234,713.082675 2050.962683,720.003308 2052.225522,726.813982 2054.566313,733.324950 2057.930053,739.379353 2062.218255,744.808290 2067.324207,749.487170 2073.112522,753.268556 2079.446168,756.082822 2086.144865,757.837182 2093.042202,758.472511 2099.948261,758.007031 2106.680881,756.436884 2113.086341,753.792181 2118.980362,750.169109 2124.208513,745.631124 2128.643864,740.320112 2132.159952,734.355729 2134.673091,727.903018 2136.114169,721.127333 2136.466457,715.162687 2135.832253,708.276332 2134.100575,701.578042 2131.311372,695.246603"/>
    <poly id="16232974#2" type="sport.ice_hockey" color="79,230,125" fill="1" layer="-2.00" shape="2131.311372,695.246603 2127.541736,689.428228 2122.882390,684.313898 2117.462377,680.006440 2111.417555,676.631065 2104.913640,674.280254 2098.102948,672.990595 2091.188100,672.833107 2084.330112,673.777832 2077.711628,675.806395 2071.508238,678.889147 2065.882367,682.929431 2060.982340,687.808052 2056.926860,693.427428 2053.836276,699.612164 2051.778988,706.230251 2050.810234,713.082675 2050.962683,720.003308 2052.225522,726.813982 2054.566313,733.324950 2057.930053,739.379353 2062.218255,744.808290 2067.324207,749.487170 2073.112522,753.268556 2079.446168,756.082822 2086.144865,757.837182 2093.042202,758.472511 2099.948261,758.007031 2106.680881,756.436884 2113.086341,753.792181 2118.980362,750.169109 2124.208513,745.631124 2128.643864,740.320112 2132.159952,734.355729 2134.673091,727.903018 2136.114169,721.127333 2136.466457,715.162687 2135.832253,708.276332 2134.100575,701.578042 2131.311372,695.246603"/>
    <poly id="16580013" type="waterway.river" color="181,209,209" fill="0" layer="-4.00" shape="1372.758351,787.468631 1453.511918,805.938792 1557.772054,820.367957 1563.027310,821.090358 1615.920624,824.596224 1656.505059,818.256527 1826.195444,763.740436 1887.405549,734.194326 1944.068722,700.449016 2118.622816,552.881907"/>